<?xml version="1.0" encoding="UTF-8"?>

<!-- generated on 10/11/18 20:15:30 by Eclipse SUMO netconvert Version 1.0.1
<configuration xmlns:xsi="http://www.w3.org/2001/XMLSchema-instance" xsi:noNamespaceSchemaLocation="http://sumo.dlr.de/xsd/netconvertConfiguration.xsd">

    <input>
        <type-files value="C:\Program%20Files%20(x86)\Eclipse\Sumo\data\typemap\osmNetconvert.typ.xml"/>
        <osm-files value="C:\Users\Admin\Sumo\2018-10-11-20-15-25\osm_bbox.osm.xml"/>
    </input>

    <output>
        <output-file value="C:\Users\Admin\Sumo\2018-10-11-20-15-25\osm.net.xml"/>
        <output.street-names value="true"/>
        <output.original-names value="true"/>
    </output>

    <projection>
        <proj.utm value="true"/>
    </projection>

    <processing>
        <geometry.remove value="true"/>
        <roundabouts.guess value="true"/>
    </processing>

    <tls_building>
        <tls.discard-simple value="true"/>
        <tls.join value="true"/>
        <tls.guess-signals value="true"/>
        <tls.default-type value="actuated"/>
    </tls_building>

    <ramp_guessing>
        <ramps.guess value="true"/>
    </ramp_guessing>

    <junctions>
        <junctions.join value="true"/>
        <junctions.corner-detail value="5"/>
    </junctions>

    <report>
        <verbose value="true"/>
    </report>

</configuration>
-->

<net version="1.0" junctionCornerDetail="5" limitTurnSpeed="5.50" xmlns:xsi="http://www.w3.org/2001/XMLSchema-instance" xsi:noNamespaceSchemaLocation="http://sumo.dlr.de/xsd/net_file.xsd">

    <location netOffset="-374569.14,-5289046.63" convBoundary="0.00,0.00,1932.75,2263.19" origBoundary="7.326753,47.742809,7.353119,47.763018" projParameter="+proj=utm +zone=32 +ellps=WGS84 +datum=WGS84 +units=m +no_defs"/>

    <type id="highway.bridleway" priority="1" numLanes="1" speed="2.78" allow="pedestrian" oneway="1" width="2.00"/>
    <type id="highway.bus_guideway" priority="1" numLanes="1" speed="27.78" allow="bus" oneway="1"/>
    <type id="highway.cycleway" priority="1" numLanes="1" speed="8.33" allow="bicycle" oneway="0" width="1.00"/>
    <type id="highway.footway" priority="1" numLanes="1" speed="2.78" allow="pedestrian" oneway="1" width="2.00"/>
    <type id="highway.ford" priority="1" numLanes="1" speed="2.78" allow="army" oneway="0"/>
    <type id="highway.living_street" priority="3" numLanes="1" speed="2.78" disallow="tram rail_urban rail rail_electric ship" oneway="0"/>
    <type id="highway.motorway" priority="13" numLanes="2" speed="44.44" allow="private emergency authority army vip passenger hov taxi bus coach delivery truck trailer motorcycle evehicle custom1 custom2" oneway="1"/>
    <type id="highway.motorway_link" priority="12" numLanes="1" speed="22.22" allow="private emergency authority army vip passenger hov taxi bus coach delivery truck trailer motorcycle evehicle custom1 custom2" oneway="1"/>
    <type id="highway.path" priority="1" numLanes="1" speed="2.78" allow="bicycle pedestrian" oneway="1" width="2.00"/>
    <type id="highway.pedestrian" priority="1" numLanes="1" speed="2.78" allow="pedestrian" oneway="1" width="2.00"/>
    <type id="highway.primary" priority="9" numLanes="2" speed="27.78" disallow="tram rail_urban rail rail_electric ship" oneway="0"/>
    <type id="highway.primary_link" priority="8" numLanes="1" speed="22.22" disallow="tram rail_urban rail rail_electric ship" oneway="0"/>
    <type id="highway.raceway" priority="14" numLanes="2" speed="83.33" allow="vip" oneway="0"/>
    <type id="highway.residential" priority="4" numLanes="1" speed="13.89" disallow="tram rail_urban rail rail_electric ship" oneway="0"/>
    <type id="highway.secondary" priority="7" numLanes="2" speed="27.78" disallow="tram rail_urban rail rail_electric ship" oneway="0"/>
    <type id="highway.secondary_link" priority="6" numLanes="1" speed="22.22" disallow="tram rail_urban rail rail_electric ship" oneway="0"/>
    <type id="highway.service" priority="2" numLanes="1" speed="5.56" allow="delivery bicycle pedestrian" oneway="0"/>
    <type id="highway.stairs" priority="1" numLanes="1" speed="1.39" allow="pedestrian" oneway="1" width="2.00"/>
    <type id="highway.step" priority="1" numLanes="1" speed="1.39" allow="pedestrian" oneway="1" width="2.00"/>
    <type id="highway.steps" priority="1" numLanes="1" speed="1.39" allow="pedestrian" oneway="1" width="2.00"/>
    <type id="highway.tertiary" priority="6" numLanes="1" speed="22.22" disallow="tram rail_urban rail rail_electric ship" oneway="0"/>
    <type id="highway.tertiary_link" priority="5" numLanes="1" speed="22.22" disallow="tram rail_urban rail rail_electric ship" oneway="0"/>
    <type id="highway.track" priority="1" numLanes="1" speed="5.56" disallow="tram rail_urban rail rail_electric ship" oneway="0"/>
    <type id="highway.trunk" priority="11" numLanes="2" speed="27.78" disallow="tram rail_urban rail rail_electric bicycle pedestrian ship" oneway="0"/>
    <type id="highway.trunk_link" priority="10" numLanes="1" speed="22.22" disallow="tram rail_urban rail rail_electric bicycle pedestrian ship" oneway="0"/>
    <type id="highway.unclassified" priority="5" numLanes="1" speed="13.89" disallow="tram rail_urban rail rail_electric ship" oneway="0"/>
    <type id="highway.unsurfaced" priority="1" numLanes="1" speed="8.33" disallow="tram rail_urban rail rail_electric ship" oneway="0"/>
    <type id="railway.light_rail" priority="15" numLanes="1" speed="27.78" allow="rail_urban" oneway="1"/>
    <type id="railway.preserved" priority="15" numLanes="1" speed="27.78" allow="rail" oneway="1"/>
    <type id="railway.rail" priority="15" numLanes="1" speed="83.33" allow="rail rail_electric" oneway="1"/>
    <type id="railway.subway" priority="15" numLanes="1" speed="27.78" allow="rail_urban" oneway="1"/>
    <type id="railway.tram" priority="15" numLanes="1" speed="13.89" allow="tram" oneway="1"/>

    <edge id=":1282540516_0" function="internal">
        <lane id=":1282540516_0_0" index="0" disallow="tram rail_urban rail rail_electric ship" speed="4.95" length="5.10" shape="596.71,675.27 595.43,674.67 594.68,673.81 594.48,672.69 594.81,671.32"/>
    </edge>
    <edge id=":1282540516_1" function="internal">
        <lane id=":1282540516_1_0" index="0" disallow="tram rail_urban rail rail_electric ship" speed="8.33" length="6.21" shape="592.50,677.08 594.81,671.32"/>
    </edge>
    <edge id=":1459269960_0" function="internal">
        <lane id=":1459269960_0_0" index="0" disallow="tram rail_urban rail rail_electric ship" speed="27.78" length="5.07" shape="1152.33,673.59 1151.37,674.75 1150.77,675.58 1150.21,676.45 1149.41,677.72"/>
    </edge>
    <edge id=":1459269960_1" function="internal">
        <lane id=":1459269960_1_0" index="0" disallow="tram rail_urban rail rail_electric ship" speed="3.65" length="2.34" shape="1152.33,673.59 1150.94,673.98 1150.08,673.76"/>
    </edge>
    <edge id=":1459269960_4" function="internal">
        <lane id=":1459269960_4_0" index="0" speed="3.65" length="2.34" shape="1150.08,673.76 1149.73,672.94 1149.90,671.51"/>
    </edge>
    <edge id=":1459269960_2" function="internal">
        <lane id=":1459269960_2_0" index="0" disallow="tram rail_urban rail rail_electric ship" speed="27.78" length="5.50" shape="1146.72,675.99 1147.59,674.61 1148.20,673.66 1148.86,672.76 1149.90,671.51"/>
    </edge>
    <edge id=":1459269960_3" function="internal">
        <lane id=":1459269960_3_0" index="0" disallow="tram rail_urban rail rail_electric ship" speed="3.65" length="2.34" shape="1146.72,675.99 1148.04,675.41 1148.93,675.51"/>
    </edge>
    <edge id=":1459269960_5" function="internal">
        <lane id=":1459269960_5_0" index="0" speed="3.65" length="2.34" shape="1148.93,675.51 1149.39,676.28 1149.41,677.72"/>
    </edge>
    <edge id=":1540439914_0" function="internal">
        <lane id=":1540439914_0_0" index="0" disallow="tram rail_urban rail rail_electric ship" speed="8.33" length="9.44" shape="959.99,1128.93 954.55,1136.64"/>
    </edge>
    <edge id=":1540439914_1" function="internal">
        <lane id=":1540439914_1_0" index="0" disallow="tram rail_urban rail rail_electric ship" speed="6.43" length="7.98" shape="959.99,1128.93 958.26,1131.02 956.61,1132.29 955.03,1132.74 953.54,1132.37"/>
    </edge>
    <edge id=":1540439914_2" function="internal">
        <lane id=":1540439914_2_0" index="0" disallow="tram rail_urban rail rail_electric ship" speed="5.97" length="8.10" shape="955.06,1129.55 956.24,1130.65 956.55,1132.20 955.99,1134.19 954.55,1136.64"/>
    </edge>
    <edge id=":1540439914_3" function="internal">
        <lane id=":1540439914_3_0" index="0" disallow="tram rail_urban rail rail_electric ship" speed="3.65" length="4.67" shape="955.06,1129.55 955.74,1130.83 955.71,1131.72 954.98,1132.24 953.54,1132.37"/>
    </edge>
    <edge id=":1542044774_0" function="internal">
        <lane id=":1542044774_0_0" index="0" disallow="tram rail_urban rail rail_electric ship" speed="3.65" length="4.67" shape="723.95,1179.36 722.75,1180.15 721.85,1180.21 721.27,1179.54 721.00,1178.12"/>
    </edge>
    <edge id=":1542044776_0" function="internal">
        <lane id=":1542044776_0_0" index="0" disallow="tram rail_urban rail rail_electric ship" speed="6.59" length="9.10" shape="746.03,1141.09 743.62,1140.53 741.60,1140.88 739.94,1142.13 738.66,1144.28"/>
    </edge>
    <edge id=":1542044776_1" function="internal">
        <lane id=":1542044776_1_0" index="0" disallow="tram rail_urban rail rail_electric ship" speed="8.33" length="14.36" shape="746.03,1141.09 732.71,1135.71"/>
    </edge>
    <edge id=":1542044776_2" function="internal">
        <lane id=":1542044776_2_0" index="0" disallow="tram rail_urban rail rail_electric ship" speed="6.51" length="9.03" shape="735.71,1143.04 736.34,1140.64 736.05,1138.62 734.84,1136.98 732.71,1135.71"/>
    </edge>
    <edge id=":1542044776_3" function="internal">
        <lane id=":1542044776_3_0" index="0" disallow="tram rail_urban rail rail_electric ship" speed="3.65" length="4.67" shape="735.71,1143.04 736.91,1142.24 737.81,1142.18 738.39,1142.86 738.66,1144.28"/>
    </edge>
    <edge id=":1579898533_0" function="internal">
        <lane id=":1579898533_0_0" index="0" disallow="tram rail_urban rail rail_electric ship" speed="27.78" length="3.30" shape="748.49,1093.06 747.59,1092.52 746.97,1092.13 746.34,1091.78 745.38,1091.37"/>
        <lane id=":1579898533_0_1" index="1" disallow="tram rail_urban rail rail_electric ship" speed="27.78" length="3.30" shape="749.22,1089.80 748.44,1089.34 747.91,1089.02 747.36,1088.73 746.53,1088.39"/>
    </edge>
    <edge id=":1579898533_2" function="internal">
        <lane id=":1579898533_2_0" index="0" allow="delivery bicycle pedestrian" speed="4.60" length="6.15" shape="749.22,1089.80 746.75,1088.25 746.01,1087.36 747.00,1087.13 748.05,1087.30"/>
    </edge>
    <edge id=":1579898533_3" function="internal">
        <lane id=":1579898533_3_0" index="0" disallow="tram rail_urban rail rail_electric ship" speed="3.70" length="2.94" shape="749.22,1089.80 748.18,1088.71 747.95,1087.80 748.26,1087.42"/>
    </edge>
    <edge id=":1579898533_8" function="internal">
        <lane id=":1579898533_8_0" index="0" speed="4.60" length="1.69" shape="748.05,1087.30 749.72,1087.56"/>
    </edge>
    <edge id=":1579898533_9" function="internal">
        <lane id=":1579898533_9_0" index="0" speed="3.70" length="1.94" shape="748.26,1087.42 748.54,1087.08 749.94,1086.53"/>
    </edge>
    <edge id=":1579898533_4" function="internal">
        <lane id=":1579898533_4_0" index="0" allow="delivery bicycle pedestrian" speed="16.67" length="5.22" shape="748.85,1082.42 749.72,1087.56"/>
    </edge>
    <edge id=":1579898533_5" function="internal">
        <lane id=":1579898533_5_0" index="0" disallow="tram rail_urban rail rail_electric ship" speed="27.78" length="2.27" shape="748.85,1082.42 749.41,1082.64 749.78,1082.80 750.15,1082.98 750.67,1083.27"/>
        <lane id=":1579898533_5_1" index="1" disallow="tram rail_urban rail rail_electric ship" speed="27.78" length="2.27" shape="747.69,1085.40 748.38,1085.68 748.85,1085.91 749.29,1086.16 749.94,1086.53"/>
    </edge>
    <edge id=":1579898533_7" function="internal">
        <lane id=":1579898533_7_0" index="0" disallow="tram rail_urban rail rail_electric ship" speed="3.65" length="2.34" shape="747.69,1085.40 748.52,1086.58 748.60,1087.47"/>
    </edge>
    <edge id=":1579898533_10" function="internal">
        <lane id=":1579898533_10_0" index="0" speed="3.65" length="2.34" shape="748.60,1087.47 747.94,1088.07 746.53,1088.39"/>
    </edge>
    <edge id=":1631839234_0" function="internal">
        <lane id=":1631839234_0_0" index="0" disallow="tram rail_urban rail rail_electric ship" speed="7.15" length="5.04" shape="757.86,575.08 756.82,575.93 755.72,576.52 754.55,576.83 753.31,576.87"/>
    </edge>
    <edge id=":1631882535_0" function="internal">
        <lane id=":1631882535_0_0" index="0" allow="tram" speed="13.89" length="5.24" shape="1066.51,408.26 1068.06,403.26"/>
    </edge>
    <edge id=":1631882648_0" function="internal">
        <lane id=":1631882648_0_0" index="0" disallow="tram rail_urban rail rail_electric ship" speed="13.89" length="1.14" shape="1074.53,425.01 1074.69,425.30 1074.82,425.50 1074.96,425.68 1075.18,425.94"/>
    </edge>
    <edge id=":1631882648_1" function="internal">
        <lane id=":1631882648_1_0" index="0" allow="tram" speed="13.89" length="1.14" shape="1074.53,425.01 1074.69,425.30 1074.82,425.50 1074.96,425.68 1075.18,425.94"/>
    </edge>
    <edge id=":1631883469_0" function="internal">
        <lane id=":1631883469_0_0" index="0" allow="tram" speed="13.89" length="15.86" shape="1100.87,718.85 1103.87,716.37 1107.08,713.86 1110.13,711.21 1112.67,708.31"/>
    </edge>
    <edge id=":1631883469_1" function="internal">
        <lane id=":1631883469_1_0" index="0" allow="tram" speed="13.89" length="15.87" shape="1103.48,721.25 1112.67,708.31"/>
    </edge>
    <edge id=":1631883579_0" function="internal">
        <lane id=":1631883579_0_0" index="0" disallow="tram rail_urban rail rail_electric ship" speed="13.89" length="5.06" shape="974.14,738.07 978.48,735.47"/>
    </edge>
    <edge id=":1631883585_0" function="internal">
        <lane id=":1631883585_0_0" index="0" allow="tram" speed="13.89" length="11.17" shape="1063.94,739.31 1067.04,738.82 1069.37,738.14 1071.65,737.26 1074.63,736.19"/>
    </edge>
    <edge id=":1631883585_1" function="internal">
        <lane id=":1631883585_1_0" index="0" allow="tram" speed="13.89" length="11.03" shape="1063.94,739.31 1067.06,739.07 1069.44,739.09 1071.81,739.37 1074.91,739.88"/>
    </edge>
    <edge id=":1631883623_0" function="internal">
        <lane id=":1631883623_0_0" index="0" allow="tram" speed="13.89" length="10.93" shape="1075.07,739.90 1078.18,740.41 1080.56,740.54 1082.80,740.02 1085.55,738.61"/>
    </edge>
    <edge id=":1631883623_1" function="internal">
        <lane id=":1631883623_1_0" index="0" allow="tram" speed="13.89" length="8.96" shape="1075.07,739.90 1077.70,740.28 1079.52,740.52 1081.29,740.96 1083.75,741.92"/>
    </edge>
    <edge id=":1631883623_2" function="internal">
        <lane id=":1631883623_2_0" index="0" allow="tram" speed="13.89" length="10.32" shape="1076.39,743.34 1079.15,742.10 1081.08,741.18 1082.96,740.16 1085.55,738.61"/>
    </edge>
    <edge id=":1631883623_3" function="internal">
        <lane id=":1631883623_3_0" index="0" allow="tram" speed="13.89" length="3.36" shape="1076.39,743.34 1078.81,742.37 1079.54,742.17"/>
    </edge>
    <edge id=":1631883623_4" function="internal">
        <lane id=":1631883623_4_0" index="0" speed="13.89" length="4.30" shape="1079.54,742.17 1080.85,741.81 1082.50,741.66 1083.75,741.92"/>
    </edge>
    <edge id=":1631883643_0" function="internal">
        <lane id=":1631883643_0_0" index="0" allow="tram" speed="13.89" length="7.97" shape="1089.57,741.04 1082.63,744.96"/>
    </edge>
    <edge id=":1631883643_1" function="internal">
        <lane id=":1631883643_1_0" index="0" allow="tram" speed="13.89" length="6.35" shape="1083.94,741.99 1085.64,742.78 1086.76,743.42 1087.80,744.19 1089.28,745.36"/>
    </edge>
    <edge id=":1631883663_0" function="internal">
        <lane id=":1631883663_0_0" index="0" allow="tram" speed="13.89" length="10.05" shape="1066.60,746.15 1069.54,745.71 1071.55,745.28 1073.48,744.60 1076.21,743.42"/>
    </edge>
    <edge id=":1631883663_1" function="internal">
        <lane id=":1631883663_1_0" index="0" allow="tram" speed="13.89" length="6.75" shape="1066.60,746.15 1068.58,745.94 1069.95,745.98 1071.32,746.18 1073.31,746.44"/>
    </edge>
    <edge id=":1631883698_0" function="internal">
        <lane id=":1631883698_0_0" index="0" allow="tram" speed="13.89" length="13.74" shape="1082.45,745.05 1079.26,746.59 1076.16,747.76 1072.98,748.73 1069.56,749.71"/>
    </edge>
    <edge id=":1631883698_1" function="internal">
        <lane id=":1631883698_1_0" index="0" allow="tram" speed="13.89" length="10.11" shape="1073.51,746.46 1076.48,746.79 1078.52,747.15 1080.48,747.77 1083.24,748.91"/>
    </edge>
    <edge id=":1631883910_0" function="internal">
        <lane id=":1631883910_0_0" index="0" allow="tram" speed="13.89" length="25.51" shape="974.11,759.75 968.83,760.77 961.71,762.61 954.62,764.64 949.45,766.19"/>
    </edge>
    <edge id=":1631883910_1" function="internal">
        <lane id=":1631883910_1_0" index="0" allow="tram" speed="13.89" length="25.45" shape="974.11,759.75 948.84,762.78"/>
    </edge>
    <edge id=":1631883929_0" function="internal">
        <lane id=":1631883929_0_0" index="0" allow="tram" speed="13.89" length="5.04" shape="1062.70,757.92 1057.67,758.37"/>
    </edge>
    <edge id=":1631883970_0" function="internal">
        <lane id=":1631883970_0_0" index="0" allow="tram" speed="13.89" length="3.30" shape="943.41,763.44 940.14,763.88"/>
    </edge>
    <edge id=":1631883970_1" function="internal">
        <lane id=":1631883970_1_0" index="0" allow="tram" speed="13.89" length="3.17" shape="940.41,764.41 941.24,763.97 941.81,763.68 942.41,763.43 943.28,763.08"/>
    </edge>
    <edge id=":1631884085_0" function="internal">
        <lane id=":1631884085_0_0" index="0" allow="tram" speed="13.89" length="21.20" shape="972.06,767.17 967.44,768.03 961.76,769.55 956.14,771.33 951.70,772.94"/>
    </edge>
    <edge id=":1631884085_1" function="internal">
        <lane id=":1631884085_1_0" index="0" allow="tram" speed="13.89" length="21.20" shape="972.06,767.17 950.99,769.45"/>
    </edge>
    <edge id=":1631884105_0" function="internal">
        <lane id=":1631884105_0_0" index="0" allow="tram" speed="13.89" length="16.61" shape="950.40,769.51 946.44,770.15 942.26,771.21 938.21,772.68 934.66,774.49"/>
    </edge>
    <edge id=":1631884105_1" function="internal">
        <lane id=":1631884105_1_0" index="0" allow="tram" speed="13.89" length="15.20" shape="950.40,769.51 946.64,769.92 942.83,770.29 939.03,770.58 935.25,770.74"/>
    </edge>
    <edge id=":1631884105_2" function="internal">
        <lane id=":1631884105_2_0" index="0" allow="tram" speed="13.89" length="16.90" shape="949.35,766.22 945.64,767.76 941.81,769.91 938.08,772.29 934.66,774.49"/>
    </edge>
    <edge id=":1631884105_3" function="internal">
        <lane id=":1631884105_3_0" index="0" allow="tram" speed="13.89" length="6.62" shape="949.35,766.22 945.83,767.53 943.19,768.65"/>
    </edge>
    <edge id=":1631884105_4" function="internal">
        <lane id=":1631884105_4_0" index="0" speed="13.89" length="8.25" shape="943.19,768.65 942.38,768.99 938.89,770.20 935.25,770.74"/>
    </edge>
    <edge id=":1631884144_0" function="internal">
        <lane id=":1631884144_0_0" index="0" allow="tram" speed="13.89" length="2.81" shape="893.14,770.97 890.33,770.97"/>
    </edge>
    <edge id=":1631884144_1" function="internal">
        <lane id=":1631884144_1_0" index="0" allow="tram" speed="13.89" length="2.80" shape="893.12,770.82 892.29,770.91 891.73,770.96 891.16,770.97 890.33,770.97"/>
    </edge>
    <edge id=":1631884219_0" function="internal">
        <lane id=":1631884219_0_0" index="0" allow="tram" speed="13.89" length="21.25" shape="1100.27,759.34 1107.89,779.18"/>
    </edge>
    <edge id=":1631884219_1" function="internal">
        <lane id=":1631884219_1_0" index="0" allow="tram" speed="13.89" length="21.32" shape="1097.03,760.88 1099.81,764.72 1102.96,769.74 1105.86,774.91 1107.89,779.18"/>
    </edge>
    <edge id=":1631884382_0" function="internal">
        <lane id=":1631884382_0_0" index="0" allow="tram" speed="13.89" length="21.70" shape="921.02,799.91 918.65,804.08 915.78,809.42 913.10,814.85 911.30,819.28"/>
    </edge>
    <edge id=":1631884382_1" function="internal">
        <lane id=":1631884382_1_0" index="0" allow="tram" speed="13.89" length="21.67" shape="917.84,798.62 911.30,819.28"/>
    </edge>
    <edge id=":1631884476_0" function="internal">
        <lane id=":1631884476_0_0" index="0" allow="tram" speed="13.89" length="3.00" shape="874.31,926.32 875.19,923.45"/>
    </edge>
    <edge id=":1631884476_1" function="internal">
        <lane id=":1631884476_1_0" index="0" allow="delivery bicycle pedestrian" speed="5.56" length="3.00" shape="874.31,926.32 875.19,923.45"/>
    </edge>
    <edge id=":1631884610_0" function="internal">
        <lane id=":1631884610_0_0" index="0" allow="tram" speed="13.89" length="2.39" shape="861.11,980.51 860.36,982.78"/>
    </edge>
    <edge id=":1631884610_1" function="internal">
        <lane id=":1631884610_1_0" index="0" allow="tram" speed="13.89" length="2.38" shape="860.93,980.48 860.82,981.17 860.73,981.65 860.60,982.12 860.36,982.78"/>
    </edge>
    <edge id=":1631884641_0" function="internal">
        <lane id=":1631884641_0_0" index="0" allow="tram" speed="13.89" length="2.60" shape="857.05,981.91 857.93,979.47"/>
    </edge>
    <edge id=":1631884641_1" function="internal">
        <lane id=":1631884641_1_0" index="0" allow="delivery bicycle pedestrian" speed="5.56" length="2.60" shape="857.05,981.91 857.34,981.20 857.53,980.70 857.69,980.20 857.92,979.46"/>
    </edge>
    <edge id=":1631909609_0" function="internal">
        <lane id=":1631909609_0_0" index="0" disallow="tram rail_urban rail rail_electric ship" speed="13.89" length="9.45" shape="642.45,968.38 633.92,964.31"/>
    </edge>
    <edge id=":1631909609_1" function="internal">
        <lane id=":1631909609_1_0" index="0" disallow="tram rail_urban rail rail_electric ship" speed="6.38" length="7.96" shape="642.45,968.38 640.08,967.03 638.55,965.63 637.84,964.16 637.98,962.64"/>
    </edge>
    <edge id=":1631909609_2" function="internal">
        <lane id=":1631909609_2_0" index="0" disallow="tram rail_urban rail rail_electric ship" speed="5.98" length="1.49" shape="640.99,963.70 640.16,964.93"/>
    </edge>
    <edge id=":1631909609_3" function="internal">
        <lane id=":1631909609_3_0" index="0" disallow="tram rail_urban rail rail_electric ship" speed="3.65" length="1.44" shape="640.99,963.70 639.84,964.57"/>
    </edge>
    <edge id=":1631909609_4" function="internal">
        <lane id=":1631909609_4_0" index="0" speed="5.98" length="6.59" shape="640.16,964.93 640.10,965.03 638.62,965.57 636.56,965.33 633.92,964.31"/>
    </edge>
    <edge id=":1631909609_5" function="internal">
        <lane id=":1631909609_5_0" index="0" speed="3.65" length="3.23" shape="639.84,964.57 638.95,964.68 638.33,964.03 637.98,962.64"/>
    </edge>
    <edge id=":1818675015_0" function="internal">
        <lane id=":1818675015_0_0" index="0" allow="delivery bicycle pedestrian" speed="3.65" length="4.67" shape="484.45,948.97 483.17,949.65 482.28,949.63 481.76,948.90 481.63,947.46"/>
    </edge>
    <edge id=":1818675017_0" function="internal">
        <lane id=":1818675017_0_0" index="0" disallow="tram rail_urban rail rail_electric ship" speed="5.05" length="5.03" shape="479.39,917.13 478.07,916.71 476.93,916.81 475.98,917.43 475.22,918.56"/>
    </edge>
    <edge id=":1818675017_1" function="internal">
        <lane id=":1818675017_1_0" index="0" allow="delivery bicycle pedestrian" speed="3.65" length="4.67" shape="479.39,917.13 478.66,915.89 478.64,915.00 479.35,914.45 480.78,914.25"/>
    </edge>
    <edge id=":1818675017_2" function="internal">
        <lane id=":1818675017_2_0" index="0" allow="delivery bicycle pedestrian" speed="5.03" length="5.01" shape="479.35,910.10 478.92,911.41 479.02,912.54 479.64,913.48 480.78,914.25"/>
    </edge>
    <edge id=":1818675017_3" function="internal">
        <lane id=":1818675017_3_0" index="0" disallow="tram rail_urban rail rail_electric ship" speed="13.89" length="9.42" shape="479.35,910.10 475.22,918.56"/>
    </edge>
    <edge id=":1851749564_0" function="internal">
        <lane id=":1851749564_0_0" index="0" disallow="tram rail_urban rail rail_electric ship" speed="18.06" length="14.02" shape="551.22,1005.37 538.76,999.04"/>
        <lane id=":1851749564_0_1" index="1" disallow="tram rail_urban rail rail_electric ship" speed="18.06" length="14.02" shape="552.71,1002.54 540.18,996.17"/>
    </edge>
    <edge id=":1851749564_2" function="internal">
        <lane id=":1851749564_2_0" index="0" allow="delivery bicycle pedestrian" speed="8.82" length="5.02" shape="552.71,1002.54 549.78,1000.15 549.30,999.01"/>
    </edge>
    <edge id=":1851749564_3" function="internal">
        <lane id=":1851749564_3_0" index="0" disallow="tram rail_urban rail rail_electric ship" speed="3.65" length="2.34" shape="552.71,1002.54 552.02,1001.27 552.04,1000.38"/>
    </edge>
    <edge id=":1851749564_12" function="internal">
        <lane id=":1851749564_12_0" index="0" speed="8.82" length="11.71" shape="549.30,999.01 548.41,996.90 548.57,992.77 550.29,987.77"/>
    </edge>
    <edge id=":1851749564_13" function="internal">
        <lane id=":1851749564_13_0" index="0" speed="3.65" length="2.34" shape="552.04,1000.38 552.77,999.85 554.20,999.70"/>
    </edge>
    <edge id=":1851749564_4" function="internal">
        <lane id=":1851749564_4_0" index="0" disallow="tram rail_urban rail rail_electric ship" speed="6.71" length="9.25" shape="553.23,989.04 552.48,991.50 552.64,993.63 553.71,995.42 555.69,996.87"/>
    </edge>
    <edge id=":1851749564_5" function="internal">
        <lane id=":1851749564_5_0" index="0" allow="delivery bicycle pedestrian" speed="6.40" length="8.90" shape="543.01,990.43 545.32,991.17 547.30,990.98 548.96,989.84 550.29,987.77"/>
    </edge>
    <edge id=":1851749564_6" function="internal">
        <lane id=":1851749564_6_0" index="0" disallow="tram rail_urban rail rail_electric ship" speed="18.06" length="14.19" shape="543.01,990.43 555.69,996.87"/>
        <lane id=":1851749564_6_1" index="1" disallow="tram rail_urban rail rail_electric ship" speed="18.06" length="14.19" shape="541.59,993.30 554.20,999.70"/>
    </edge>
    <edge id=":1851749564_8" function="internal">
        <lane id=":1851749564_8_0" index="0" disallow="tram rail_urban rail rail_electric ship" speed="3.65" length="2.34" shape="541.59,993.30 542.32,994.54 542.32,995.44"/>
    </edge>
    <edge id=":1851749564_14" function="internal">
        <lane id=":1851749564_14_0" index="0" speed="3.65" length="2.34" shape="542.32,995.44 541.61,995.98 540.18,996.17"/>
    </edge>
    <edge id=":1851749564_9" function="internal">
        <lane id=":1851749564_9_0" index="0" disallow="tram rail_urban rail rail_electric ship" speed="7.06" length="10.68" shape="543.13,1007.43 543.75,1005.01 543.23,1002.80 541.57,1000.81 538.76,999.04"/>
    </edge>
    <edge id=":1851749564_10" function="internal">
        <lane id=":1851749564_10_0" index="0" allow="delivery bicycle pedestrian" speed="6.95" length="20.94" shape="543.13,1007.43 544.85,1003.09 546.73,997.61 548.59,992.12 550.29,987.77"/>
    </edge>
    <edge id=":1851749564_11" function="internal">
        <lane id=":1851749564_11_0" index="0" disallow="tram rail_urban rail rail_electric ship" speed="8.13" length="15.18" shape="543.13,1007.43 545.74,1002.88 548.45,1000.07 551.27,999.01 554.20,999.70"/>
    </edge>
    <edge id=":1895053361_0" function="internal">
        <lane id=":1895053361_0_0" index="0" allow="bicycle" speed="2.04" length="1.46" width="1.00" shape="271.29,326.52 271.16,326.09 271.22,325.82 271.47,325.70 271.92,325.74"/>
    </edge>
    <edge id=":1931891239_0" function="internal">
        <lane id=":1931891239_0_0" index="0" allow="delivery bicycle pedestrian" speed="5.52" length="5.11" shape="244.99,913.42 244.99,914.69 245.41,915.77 246.26,916.66 247.53,917.36"/>
    </edge>
    <edge id=":1931891239_1" function="internal">
        <lane id=":1931891239_1_0" index="0" disallow="tram rail_urban rail rail_electric ship" speed="8.33" length="5.96" shape="244.99,913.42 244.70,915.17 244.45,916.35 244.10,917.51 243.54,919.19"/>
    </edge>
    <edge id=":1931891243_0" function="internal">
        <lane id=":1931891243_0_0" index="0" allow="delivery bicycle pedestrian" speed="4.99" length="5.06" shape="260.31,924.25 258.95,923.93 257.84,924.12 256.96,924.84 256.32,926.08"/>
    </edge>
    <edge id=":1931891243_1" function="internal">
        <lane id=":1931891243_1_0" index="0" allow="delivery bicycle pedestrian" speed="3.65" length="4.67" shape="260.31,924.25 259.49,923.07 259.42,922.18 260.08,921.58 261.49,921.28"/>
    </edge>
    <edge id=":1931891243_2" function="internal">
        <lane id=":1931891243_2_0" index="0" allow="delivery bicycle pedestrian" speed="5.56" length="9.64" shape="252.12,919.23 254.83,920.06 256.80,920.27 258.77,920.47 261.49,921.28"/>