<?xml version="1.0" encoding="UTF-8"?>
<!-- generated on 2018-10-11 20:15:33.536758 by $Id$ via randomTrips.py
  options: 
-->
<routes xmlns:xsi="http://www.w3.org/2001/XMLSchema-instance" xsi:noNamespaceSchemaLocation="http://sumo.dlr.de/xsd/routes_file.xsd">
    <vType id="veh_passenger" vClass="passenger">
    </vType>
    <trip id="veh0" depart="0.00" departLane="best" from="30184024#0" to="-248013838#0" type="veh_passenger"/>
    <trip id="veh1" depart="1.16" departLane="best" from="-549172697" to="-474711282#1" type="veh_passenger"/>
    <trip id="veh2" depart="2.33" departLane="best" from="30691207" to="30185351#3" type="veh_passenger"/>
    <trip id="veh3" depart="3.49" departLane="best" from="28277857#0" to="-27942205#0" type="veh_passenger"/>
    <trip id="veh6" depart="6.98" departLane="best" from="30881874#2" to="30437599" type="veh_passenger"/>
    <trip id="veh7" depart="8.15" departLane="best" from="150266339#0" to="-30438381#1" type="veh_passenger"/>
    <trip id="veh8" depart="9.31" departLane="best" from="549315150" to="150269924#0" type="veh_passenger"/>
    <trip id="veh9" depart="10.48" departLane="best" from="31112747" to="28851724#3" type="veh_passenger"/>
    <trip id="veh10" depart="11.64" departLane="best" from="30881875#2" to="30438385#0" type="veh_passenger"/>
    <trip id="veh12" depart="13.97" departLane="best" from="31108049#1" to="30183473#1" type="veh_passenger"/>
    <trip id="veh13" depart="15.13" departLane="best" from="30438380" to="-28277857#0" type="veh_passenger"/>
    <trip id="veh14" depart="16.30" departLane="best" from="-31106626" to="140643756" type="veh_passenger"/>
    <trip id="veh15" depart="17.46" departLane="best" from="-28549376#2" to="-478896752" type="veh_passenger"/>
    <trip id="veh16" depart="18.63" departLane="best" from="-28554869#1" to="-559479443" type="veh_passenger"/>
    <trip id="veh17" depart="19.79" departLane="best" from="30184024#0" to="26245234#3" type="veh_passenger"/>
    <trip id="veh18" depart="20.95" departLane="best" from="216935642#1" to="-440984760#0" type="veh_passenger"/>
    <trip id="veh19" depart="22.12" departLane="best" from="30184029#0" to="28851729" type="veh_passenger"/>
    <trip id="veh20" depart="23.28" departLane="best" from="-30438381#2" to="27942470#1" type="veh_passenger"/>
    <trip id="veh21" depart="24.45" departLane="best" from="622301753#0" to="30183764#2" type="veh_passenger"/>
    <trip id="veh22" depart="25.61" departLane="best" from="31112746#3" to="30698006#2" type="veh_passenger"/>
    <trip id="veh23" depart="26.77" departLane="best" from="-31106626" to="-28078433#0" type="veh_passenger"/>
    <trip id="veh24" depart="27.94" departLane="best" from="140825894" to="-559428652#0" type="veh_passenger"/>
    <trip id="veh25" depart="29.10" departLane="best" from="-30882128" to="528059596" type="veh_passenger"/>
    <trip id="veh26" depart="30.27" departLane="best" from="31113565#0" to="150260984#4" type="veh_passenger"/>
    <trip id="veh27" depart="31.43" departLane="best" from="30185345#2" to="28078433#1" type="veh_passenger"/>
    <trip id="veh28" depart="32.59" departLane="best" from="474711283" to="28549377#4" type="veh_passenger"/>
    <trip id="veh29" depart="33.76" departLane="best" from="28828157#17" to="-559428650" type="veh_passenger"/>
    <trip id="veh30" depart="34.92" departLane="best" from="28851720#0" to="418565936" type="veh_passenger"/>
    <trip id="veh31" depart="36.09" departLane="best" from="27942468#1" to="-474667393#1" type="veh_passenger"/>
    <trip id="veh32" depart="37.25" departLane="best" from="-28549377#4" to="-28277857#1" type="veh_passenger"/>
    <trip id="veh33" depart="38.42" departLane="best" from="-28698505#2" to="30183479" type="veh_passenger"/>
    <trip id="veh34" depart="39.58" departLane="best" from="30697996" to="28549362" type="veh_passenger"/>
    <trip id="veh35" depart="40.74" departLane="best" from="-28549368#3" to="27942470#1" type="veh_passenger"/>
    <trip id="veh36" depart="41.91" departLane="best" from="623372709" to="28706231#3" type="veh_passenger"/>
    <trip id="veh37" depart="43.07" departLane="best" from="559428652#0" to="31112746#1" type="veh_passenger"/>
    <trip id="veh38" depart="44.24" departLane="best" from="-150268735#0" to="30438381#2" type="veh_passenger"/>
    <trip id="veh40" depart="46.56" departLane="best" from="-479639292#3" to="30183767#1" type="veh_passenger"/>
    <trip id="veh41" depart="47.73" departLane="best" from="28549366" to="549315918" type="veh_passenger"/>
    <trip id="veh42" depart="48.89" departLane="best" from="28554870" to="-30691901" type="veh_passenger"/>
    <trip id="veh43" depart="50.06" departLane="best" from="474711282#0" to="31112754#3" type="veh_passenger"/>
    <trip id="veh44" depart="51.22" departLane="best" from="-559479445#3" to="30183764#2" type="veh_passenger"/>
    <trip id="veh45" depart="52.38" departLane="best" from="30183475" to="-30438381#0" type="veh_passenger"/>
    <trip id="veh46" depart="53.55" departLane="best" from="30697987#0" to="28706231#3" type="veh_passenger"/>
    <trip id="veh47" depart="54.71" departLane="best" from="-248013837" to="479639292#1" type="veh_passenger"/>
    <trip id="veh48" depart="55.88" departLane="best" from="31113565#1" to="31106627" type="veh_passenger"/>
    <trip id="veh49" depart="57.04" departLane="best" from="140825894" to="-28549043#1" type="veh_passenger"/>
    <trip id="veh50" depart="58.20" departLane="best" from="-28549377#0" to="28698502" type="veh_passenger"/>
    <trip id="veh51" depart="59.37" departLane="best" from="-28549373#1" to="30697986#0" type="veh_passenger"/>
    <trip id="veh52" depart="60.53" departLane="best" from="28549375" to="28826179#2" type="veh_passenger"/>
    <trip id="veh53" depart="61.70" departLane="best" from="-479639292#2" to="31112754#4" type="veh_passenger"/>
    <trip id="veh54" depart="62.86" departLane="best" from="28277857#0" to="-440984760#1" type="veh_passenger"/>
    <trip id="veh56" depart="65.19" departLane="best" from="-30698006#3" to="150260984#2" type="veh_passenger"/>
    <trip id="veh57" depart="66.35" departLane="best" from="623372709" to="30184026#1" type="veh_passenger"/>
    <trip id="veh58" depart="67.52" departLane="best" from="28549043#1" to="28705119" type="veh_passenger"/>
    <trip id="veh59" depart="68.68" departLane="best" from="150260984#6" to="28851707" type="veh_passenger"/>
    <trip id="veh60" depart="69.85" departLane="best" from="-31106626" to="-474711282#1" type="veh_passenger"/>
    <trip id="veh61" depart="71.01" departLane="best" from="-28549374#0" to="30183764#1" type="veh_passenger"/>
    <trip id="veh62" depart="72.17" departLane="best" from="-31106626" to="440984760#1" type="veh_passenger"/>
    <trip id="veh63" depart="73.34" departLane="best" from="31112754#4" to="-28549367" type="veh_passenger"/>
    <trip id="veh64" depart="74.50" departLane="best" from="-31106627" to="30185350" type="veh_passenger"/>
    <trip id="veh66" depart="76.83" departLane="best" from="479639292#3" to="28828157#27" type="veh_passenger"/>
    <trip id="veh67" depart="77.99" departLane="best" from="28549374#0" to="30881873#1" type="veh_passenger"/>
    <trip id="veh68" depart="79.16" departLane="best" from="30881875#2" to="-30697987#1" type="veh_passenger"/>
    <trip id="veh69" depart="80.32" departLane="best" from="28277857#0" to="28554869#1" type="veh_passenger"/>
    <trip id="veh70" depart="81.49" departLane="best" from="30669522#1" to="30185351#1" type="veh_passenger"/>
    <trip id="veh71" depart="82.65" departLane="best" from="27942470#0" to="150269924#1" type="veh_passenger"/>
    <trip id="veh72" depart="83.81" departLane="best" from="31112754#5" to="-479639292#1" type="veh_passenger"/>
    <trip id="veh73" depart="84.98" departLane="best" from="-30697987#1" to="28549376#1" type="veh_passenger"/>
    <trip id="veh74" depart="86.14" departLane="best" from="28277857#0" to="-559479443" type="veh_passenger"/>
    <trip id="veh75" depart="87.31" departLane="best" from="-440984760#2" to="475489216#2" type="veh_passenger"/>
    <trip id="veh76" depart="88.47" departLane="best" from="28549361#0" to="31112746#2" type="veh_passenger"/>
    <trip id="veh77" depart="89.64" departLane="best" from="28826180#0" to="-28277857#3" type="veh_passenger"/>
    <trip id="veh78" depart="90.80" departLane="best" from="623372711" to="31107804" type="veh_passenger"/>
    <trip id="veh79" depart="91.96" departLane="best" from="559428651#1" to="478896723#0" type="veh_passenger"/>
    <trip id="veh80" depart="93.13" departLane="best" from="31112747" to="-30691207" type="veh_passenger"/>
    <trip id="veh81" depart="94.29" departLane="best" from="28549377#0" to="-440985577" type="veh_passenger"/>
    <trip id="veh83" depart="96.62" departLane="best" from="26245234#1" to="559479445#3" type="veh_passenger"/>
    <trip id="veh84" depart="97.78" departLane="best" from="-479639292#2" to="30881873#1" type="veh_passenger"/>
    <trip id="veh85" depart="98.95" departLane="best" from="549315150" to="623372709" type="veh_passenger"/>
    <trip id="veh86" depart="100.11" departLane="best" from="28828157#11" to="30438381#2" type="veh_passenger"/>
    <trip id="veh87" depart="101.28" departLane="best" from="-30437598#1" to="144443174#2" type="veh_passenger"/>
    <trip id="veh88" depart="102.44" departLane="best" from="559428651#1" to="28828158#2" type="veh_passenger"/>
    <trip id="veh89" depart="103.60" departLane="best" from="28711979#2" to="30691886#1" type="veh_passenger"/>
    <trip id="veh90" depart="104.77" departLane="best" from="-28549043#3" to="28851707" type="veh_passenger"/>
    <trip id="veh91" depart="105.93" departLane="best" from="28556069#0" to="31112738" type="veh_passenger"/>
    <trip id="veh92" depart="107.10" departLane="best" from="-28549376#2" to="-30697986#0" type="veh_passenger"/>
    <trip id="veh93" depart="108.26" departLane="best" from="28851724#3" to="30185351#2" type="veh_passenger"/>
    <trip id="veh94" depart="109.42" departLane="best" from="-31106627" to="-28705449#1" type="veh_passenger"/>
    <trip id="veh95" depart="110.59" departLane="best" from="418565935#0" to="-479639292#0" type="veh_passenger"/>
    <trip id="veh96" depart="111.75" departLane="best" from="28851724#3" to="30183473#1" type="veh_passenger"/>
    <trip id="veh97" depart="112.92" departLane="best" from="28277857#0" to="28851707" type="veh_passenger"/>
    <trip id="veh99" depart="115.25" departLane="best" from="-30882128" to="30438381#1" type="veh_passenger"/>
    <trip id="veh100" depart="116.41" departLane="best" from="-31106627" to="28078433#2" type="veh_passenger"/>
    <trip id="veh101" depart="117.57" departLane="best" from="30185351#2" to="144443174#2" type="veh_passenger"/>
    <trip id="veh102" depart="118.74" departLane="best" from="-28549374#1" to="-440984760#2" type="veh_passenger"/>
    <trip id="veh103" depart="119.90" departLane="best" from="31108049#3" to="30438211#0" type="veh_passenger"/>
    <trip id="veh104" depart="121.07" departLane="best" from="30183479" to="559479445#3" type="veh_passenger"/>
    <trip id="veh107" depart="124.56" departLane="best" from="30185348#0" to="479639292#7" type="veh_passenger"/>
    <trip id="veh108" depart="125.72" departLane="best" from="-30183473#1" to="-28698505#1" type="veh_passenger"/>
    <trip id="veh109" depart="126.89" departLane="best" from="-28698505#1" to="28826180#0" type="veh_passenger"/>
    <trip id="veh110" depart="128.05" departLane="best" from="-479639292#6" to="28851728" type="veh_passenger"/>
    <trip id="veh112" depart="130.38" departLane="best" from="30184024#0" to="-559428651#0" type="veh_passenger"/>
    <trip id="veh113" depart="131.54" departLane="best" from="28549377#1" to="440984760#1" type="veh_passenger"/>
    <trip id="veh114" depart="132.71" departLane="best" from="31112747" to="-28549376#3" type="veh_passenger"/>
    <trip id="veh115" depart="133.87" departLane="best" from="28277857#0" to="-559479443" type="veh_passenger"/>
    <trip id="veh116" depart="135.03" departLane="best" from="-144443174#0" to="30698006#0" type="veh_passenger"/>
    <trip id="veh117" depart="136.20" departLane="best" from="30184024#0" to="-559428650" type="veh_passenger"/>
    <trip id="veh118" depart="137.36" departLane="best" from="30691886#0" to="28826179#3" type="veh_passenger"/>
    <trip id="veh120" depart="139.69" departLane="best" from="-28549375" to="31113568" type="veh_passenger"/>
    <trip id="veh121" depart="140.86" departLane="best" from="474667384#0" to="28710851" type="veh_passenger"/>
    <trip id="veh122" depart="142.02" departLane="best" from="-30435677#0" to="-30185351#0" type="veh_passenger"/>
    <trip id="veh123" depart="143.18" departLane="best" from="140825894" to="418565936" type="veh_passenger"/>
    <trip id="veh124" depart="144.35" departLane="best" from="30698006#1" to="31112746#1" type="veh_passenger"/>
    <trip id="veh125" depart="145.51" departLane="best" from="-440984760#2" to="-28554199" type="veh_passenger"/>
    <trip id="veh126" depart="146.68" departLane="best" from="30697987#1" to="329732611" type="veh_passenger"/>
    <trip id="veh127" depart="147.84" departLane="best" from="28033841#1" to="30183473#1" type="veh_passenger"/>
    <trip id="veh128" depart="149.00" departLane="best" from="-30437598#1" to="479639292#1" type="veh_passenger"/>
    <trip id="veh129" depart="150.17" departLane="best" from="31113564#0" to="559479445#0" type="veh_passenger"/>
    <trip id="veh132" depart="153.66" departLane="best" from="150260984#3" to="479639292#2" type="veh_passenger"/>
    <trip id="veh133" depart="154.82" departLane="best" from="30881874#0" to="31112746#3" type="veh_passenger"/>
    <trip id="veh135" depart="157.15" departLane="best" from="30697996" to="-28554199" type="veh_passenger"/>
    <trip id="veh136" depart="158.32" departLane="best" from="28549368#0" to="150259964#1" type="veh_passenger"/>
    <trip id="veh137" depart="159.48" departLane="best" from="30698006#0" to="-474711282#1" type="veh_passenger"/>
    <trip id="veh138" depart="160.64" departLane="best" from="-248013837" to="-30698006#0" type="veh_passenger"/>
    <trip id="veh139" depart="161.81" departLane="best" from="150260984#0" to="31112749" type="veh_passenger"/>
    <trip id="veh140" depart="162.97" departLane="best" from="559428651#0" to="-559479443" type="veh_passenger"/>
    <trip id="veh141" depart="164.14" departLane="best" from="30184024#0" to="28277857#1" type="veh_passenger"/>
    <trip id="veh143" depart="166.47" departLane="best" from="559428652#0" to="-30691901" type="veh_passenger"/>
    <trip id="veh144" depart="167.63" departLane="best" from="29111144" to="28699058#4" type="veh_passenger"/>
    <trip id="veh145" depart="168.79" departLane="best" from="275204267" to="28828158#1" type="veh_passenger"/>
    <trip id="veh146" depart="169.96" departLane="best" from="-474667393#0" to="30438211#4" type="veh_passenger"/>
    <trip id="veh148" depart="172.29" departLane="best" from="30691886#1" to="30185351#0" type="veh_passenger"/>
    <trip id="veh149" depart="173.45" departLane="best" from="150269924#3" to="-28549367" type="veh_passenger"/>
    <trip id="veh150" depart="174.61" departLane="best" from="30185348#0" to="150266403#0" type="veh_passenger"/>
    <trip id="veh151" depart="175.78" departLane="best" from="140825894" to="31108049#4" type="veh_passenger"/>
    <trip id="veh152" depart="176.94" departLane="best" from="140825894" to="28549043#0" type="veh_passenger"/>
    <trip id="veh154" depart="179.27" departLane="best" from="-30183473#1" to="28549362" type="veh_passenger"/>
    <trip id="veh155" depart="180.43" departLane="best" from="479639292#5" to="30185352#1" type="veh_passenger"/>
    <trip id="veh156" depart="181.60" departLane="best" from="474667384#0" to="30183473#0" type="veh_passenger"/>
    <trip id="veh157" depart="182.76" departLane="best" from="-559479445#3" to="28711979#2" type="veh_passenger"/>
    <trip id="veh158" depart="183.93" departLane="best" from="-140643756" to="-622301753#0" type="veh_passenger"/>
    <trip id="veh159" depart="185.09" departLane="best" from="28277857#3" to="28830296#0" type="veh_passenger"/>
    <trip id="veh160" depart="186.25" departLane="best" from="30184029#1" to="28554868" type="veh_passenger"/>
    <trip id="veh161" depart="187.42" departLane="best" from="28549043#3" to="-440985577" type="veh_passenger"/>
    <trip id="veh162" depart="188.58" departLane="best" from="28549374#1" to="418565936" type="veh_passenger"/>
    <trip id="veh163" depart="189.75" departLane="best" from="30698006#0" to="-30691207" type="veh_passenger"/>
    <trip id="veh164" depart="190.91" departLane="best" from="-28549376#4" to="28705119" type="veh_passenger"/>
    <trip id="veh165" depart="192.08" departLane="best" from="30183769" to="150268735#1" type="veh_passenger"/>
    <trip id="veh166" depart="193.24" departLane="best" from="30185351#2" to="-474711282#1" type="veh_passenger"/>
    <trip id="veh167" depart="194.40" departLane="best" from="-30698006#3" to="-216935642#1" type="veh_passenger"/>
    <trip id="veh168" depart="195.57" departLane="best" from="-31113566#1" to="28554869#1" type="veh_passenger"/>
    <trip id="veh169" depart="196.73" departLane="best" from="31112747" to="-28549368#0" type="veh_passenger"/>
    <trip id="veh170" depart="197.90" departLane="best" from="28078433#2" to="30183764#0" type="veh_passenger"/>
    <trip id="veh171" depart="199.06" departLane="best" from="-30698006#1" to="30437599" type="veh_passenger"/>
    <trip id="veh172" depart="200.22" departLane="best" from="28549379" to="-479639292#0" type="veh_passenger"/>
    <trip id="veh174" depart="202.55" departLane="best" from="30691901" to="30698006#0" type="veh_passenger"/>
    <trip id="veh175" depart="203.72" departLane="best" from="-28698505#1" to="28549362" type="veh_passenger"/>
    <trip id="veh176" depart="204.88" departLane="best" from="-30669522#2" to="559428648#1" type="veh_passenger"/>
    <trip id="veh177" depart="206.04" departLane="best" from="28698634" to="-28277857#3" type="veh_passenger"/>
    <trip id="veh178" depart="207.21" departLane="best" from="-440984760#2" to="31108049#4" type="veh_passenger"/>
    <trip id="veh179" depart="208.37" departLane="best" from="28549366" to="30884369#1" type="veh_passenger"/>
    <trip id="veh180" depart="209.54" departLane="best" from="30185350" to="559479445#3" type="veh_passenger"/>
    <trip id="veh181" depart="210.70" departLane="best" from="28851724#3" to="528125806#3" type="veh_passenger"/>
    <trip id="veh182" depart="211.86" departLane="best" from="418565935#0" to="28851729" type="veh_passenger"/>
    <trip id="veh183" depart="213.03" departLane="best" from="30438385#4" to="28699058#0" type="veh_passenger"/>
    <trip id="veh184" depart="214.19" departLane="best" from="31108049#2" to="28711979#2" type="veh_passenger"/>
    <trip id="veh185" depart="215.36" departLane="best" from="440984760#2" to="30669522#3" type="veh_passenger"/>
    <trip id="veh186" depart="216.52" departLane="best" from="-440984760#0" to="30183764#2" type="veh_passenger"/>
    <trip id="veh187" depart="217.69" departLane="best" from="30697983" to="28705119" type="veh_passenger"/>
    <trip id="veh188" depart="218.85" departLane="best" from="30183767#1" to="-559479443" type="veh_passenger"/>
    <trip id="veh189" depart="220.01" departLane="best" from="-28549376#0" to="-578004213#0" type="veh_passenger"/>
    <trip id="veh190" depart="221.18" departLane="best" from="-479639292#6" to="150266339#0" type="veh_passenger"/>
    <trip id="veh191" depart="222.34" departLane="best" from="-31106627" to="30437599" type="veh_passenger"/>
    <trip id="veh192" depart="223.51" departLane="best" from="30438381#0" to="-28549366" type="veh_passenger"/>
    <trip id="veh194" depart="225.83" departLane="best" from="28277857#0" to="440984760#1" type="veh_passenger"/>
    <trip id="veh195" depart="227.00" departLane="best" from="28851720#0" to="30437599" type="veh_passenger"/>
    <trip id="veh196" depart="228.16" departLane="best" from="31112754#2" to="30697987#1" type="veh_passenger"/>
    <trip id="veh198" depart="230.49" departLane="best" from="150266403#0" to="30697984#0" type="veh_passenger"/>
    <trip id="veh199" depart="231.65" departLane="best" from="31112749" to="549315150" type="veh_passenger"/>
    <trip id="veh200" depart="232.82" departLane="best" from="28277857#0" to="30691886#1" type="veh_passenger"/>
    <trip id="veh201" depart="233.98" departLane="best" from="28826179#2" to="28851724#3" type="veh_passenger"/>
    <trip id="veh203" depart="236.31" departLane="best" from="150260984#5" to="30185353" type="veh_passenger"/>
    <trip id="veh204" depart="237.47" departLane="best" from="27942470#0" to="-30691207" type="veh_passenger"/>
    <trip id="veh205" depart="238.64" departLane="best" from="28549368#4" to="-30185351#0" type="veh_passenger"/>
    <trip id="veh206" depart="239.80" departLane="best" from="30183767#0" to="-27941979" type="veh_passenger"/>
    <trip id="veh207" depart="240.97" departLane="best" from="27942205#0" to="28828157#17" type="veh_passenger"/>
    <trip id="veh208" depart="242.13" departLane="best" from="-248013838#0" to="30183767#2" type="veh_passenger"/>
    <trip id="veh209" depart="243.30" departLane="best" from="-30183480" to="28549379" type="veh_passenger"/>
    <trip id="veh210" depart="244.46" departLane="best" from="-30882128" to="150266393#5" type="veh_passenger"/>
    <trip id="veh211" depart="245.62" departLane="best" from="30692747#0" to="27942470#0" type="veh_passenger"/>
    <trip id="veh212" depart="246.79" departLane="best" from="-440985577" to="-28549374#0" type="veh_passenger"/>
    <trip id="veh213" depart="247.95" departLane="best" from="30184029#0" to="30698006#2" type="veh_passenger"/>
    <trip id="veh214" depart="249.12" departLane="best" from="30184029#0" to="30697984#0" type="veh_passenger"/>
    <trip id="veh216" depart="251.44" departLane="best" from="-248013837" to="-30438381#0" type="veh_passenger"/>
    <trip id="veh217" depart="252.61" departLane="best" from="-30183473#0" to="30185350" type="veh_passenger"/>
    <trip id="veh218" depart="253.77" departLane="best" from="28828157#22" to="-474667393#0" type="veh_passenger"/>
    <trip id="veh219" depart="254.94" departLane="best" from="-30438381#2" to="28851729" type="veh_passenger"/>
    <trip id="veh220" depart="256.10" departLane="best" from="30691901" to="-28698505#1" type="veh_passenger"/>
    <trip id="veh221" depart="257.26" departLane="best" from="30884369#0" to="559428652#0" type="veh_passenger"/>
    <trip id="veh222" depart="258.43" departLane="best" from="-28698505#1" to="-248013838#0" type="veh_passenger"/>
    <trip id="veh223" depart="259.59" departLane="best" from="549315150" to="28078433#2" type="veh_passenger"/>
    <trip id="veh224" depart="260.76" departLane="best" from="30438385#2" to="-28549368#3" type="veh_passenger"/>
    <trip id="veh225" depart="261.92" departLane="best" from="30437598#1" to="30183479" type="veh_passenger"/>
    <trip id="veh226" depart="263.08" departLane="best" from="-28554869#1" to="30698006#1" type="veh_passenger"/>
    <trip id="veh227" depart="264.25" departLane="best" from="31112747" to="28851724#1" type="veh_passenger"/>
    <trip id="veh228" depart="265.41" departLane="best" from="-28851729" to="559479445#3" type="veh_passenger"/>
    <trip id="veh229" depart="266.58" departLane="best" from="28277857#2" to="27942205#0" type="veh_passenger"/>
    <trip id="veh230" depart="267.74" departLane="best" from="28556070" to="150269924#3" type="veh_passenger"/>
    <trip id="veh231" depart="268.91" departLane="best" from="31112747" to="31106626" type="veh_passenger"/>
    <trip id="veh232" depart="270.07" departLane="best" from="-28698505#0" to="559428651#0" type="veh_passenger"/>
    <trip id="veh233" depart="271.23" departLane="best" from="30184024#0" to="31106627" type="veh_passenger"/>
    <trip id="veh234" depart="272.40" departLane="best" from="30438381#0" to="28549368#4" type="veh_passenger"/>
    <trip id="veh235" depart="273.56" departLane="best" from="30691207" to="559428653#0" type="veh_passenger"/>
    <trip id="veh238" depart="277.05" departLane="best" from="28549043#0" to="30438385#2" type="veh_passenger"/>
    <trip id="veh239" depart="278.22" departLane="best" from="-479639292#4" to="31112738" type="veh_passenger"/>
    <trip id="veh240" depart="279.38" departLane="best" from="31108049#2" to="-28549376#0" type="veh_passenger"/>
    <trip id="veh241" depart="280.55" departLane="best" from="31113568" to="-479639292#0" type="veh_passenger"/>
    <trip id="veh242" depart="281.71" departLane="best" from="28549368#3" to="28851729" type="veh_passenger"/>
    <trip id="veh243" depart="282.87" departLane="best" from="26245234#1" to="-27942205#0" type="veh_passenger"/>
    <trip id="veh244" depart="284.04" departLane="best" from="31112747" to="-30697983" type="veh_passenger"/>
    <trip id="veh245" depart="285.20" departLane="best" from="150266339#0" to="31113565#1" type="veh_passenger"/>
    <trip id="veh246" depart="286.37" departLane="best" from="30438211#4" to="-559479443" type="veh_passenger"/>
    <trip id="veh247" depart="287.53" departLane="best" from="-150266403#2" to="528125806#2" type="veh_passenger"/>
    <trip id="veh248" depart="288.69" departLane="best" from="-28549377#0" to="30438381#2" type="veh_passenger"/>
    <trip id="veh249" depart="289.86" departLane="best" from="28549377#1" to="30697985#0" type="veh_passenger"/>
    <trip id="veh250" depart="291.02" departLane="best" from="30437598#1" to="30183769" type="veh_passenger"/>
    <trip id="veh252" depart="293.35" departLane="best" from="-28554869#0" to="-474711282#1" type="veh_passenger"/>
    <trip id="veh253" depart="294.52" departLane="best" from="28851719" to="28554869#1" type="veh_passenger"/>
    <trip id="veh254" depart="295.68" departLane="best" from="28709894#2" to="28549365#0" type="veh_passenger"/>
    <trip id="veh255" depart="296.84" departLane="best" from="30691901" to="150266403#0" type="veh_passenger"/>
    <trip id="veh256" depart="298.01" departLane="best" from="-440985577" to="-28705449#1" type="veh_passenger"/>
    <trip id="veh257" depart="299.17" departLane="best" from="-30698006#0" to="-28705449#1" type="veh_passenger"/>
    <trip id="veh259" depart="301.50" departLane="best" from="-30697986#0" to="-474667372#0" type="veh_passenger"/>
    <trip id="veh260" depart="302.66" departLane="best" from="28549376#4" to="30438381#2" type="veh_passenger"/>
    <trip id="veh261" depart="303.83" departLane="best" from="559428657#0" to="28705449#1" type="veh_passenger"/>
    <trip id="veh262" depart="304.99" departLane="best" from="-559428652#0" to="-28549377#4" type="veh_passenger"/>
    <trip id="veh263" depart="306.16" departLane="best" from="-30698006#1" to="-474711282#1" type="veh_passenger"/>
    <trip id="veh265" depart="308.48" departLane="best" from="559428653#1" to="28826180#0" type="veh_passenger"/>
    <trip id="veh266" depart="309.65" departLane="best" from="30438211#2" to="-30185351#0" type="veh_passenger"/>
    <trip id="veh267" depart="310.81" departLane="best" from="31113564#0" to="28698503" type="veh_passenger"/>
    <trip id="veh268" depart="311.98" departLane="best" from="-30697986#0" to="-28548799#0" type="veh_passenger"/>
    <trip id="veh269" depart="313.14" departLane="best" from="479639292#6" to="28556069#0" type="veh_passenger"/>
    <trip id="veh270" depart="314.30" departLane="best" from="30884369#2" to="28277857#2" type="veh_passenger"/>
    <trip id="veh271" depart="315.47" departLane="best" from="-28549375" to="30183764#0" type="veh_passenger"/>
    <trip id="veh272" depart="316.63" departLane="best" from="-28549043#1" to="-30437598#1" type="veh_passenger"/>
    <trip id="veh273" depart="317.80" departLane="best" from="30692747#1" to="28851729" type="veh_passenger"/>
    <trip id="veh274" depart="318.96" departLane="best" from="30697996" to="-474711282#1" type="veh_passenger"/>
    <trip id="veh276" depart="321.29" departLane="best" from="28549361#0" to="31112746#1" type="veh_passenger"/>
    <trip id="veh277" depart="322.45" departLane="best" from="622301753#0" to="150259964#1" type="veh_passenger"/>
    <trip id="veh278" depart="323.62" departLane="best" from="30183767#0" to="28851729" type="veh_passenger"/>
    <trip id="veh279" depart="324.78" departLane="best" from="30691886#0" to="528125806#2" type="veh_passenger"/>
    <trip id="veh280" depart="325.95" departLane="best" from="-30882128" to="-440984760#1" type="veh_passenger"/>
    <trip id="veh281" depart="327.11" departLane="best" from="30185347#1" to="-30438382#0" type="veh_passenger"/>
    <trip id="veh282" depart="328.27" departLane="best" from="-144443174#0" to="28549376#3" type="veh_passenger"/>
    <trip id="veh283" depart="329.44" departLane="best" from="28851724#2" to="144443174#0" type="veh_passenger"/>
    <trip id="veh284" depart="330.60" departLane="best" from="-31106627" to="30438211#3" type="veh_passenger"/>
    <trip id="veh285" depart="331.77" departLane="best" from="30438211#5" to="28549377#0" type="veh_passenger"/>
    <trip id="veh286" depart="332.93" departLane="best" from="30436090#2" to="478896719" type="veh_passenger"/>
    <trip id="veh287" depart="334.09" departLane="best" from="30697996" to="30183475" type="veh_passenger"/>
    <trip id="veh288" depart="335.26" departLane="best" from="30185347#2" to="479639292#3" type="veh_passenger"/>
    <trip id="veh290" depart="337.59" departLane="best" from="-30438381#2" to="150259964#2" type="veh_passenger"/>