<?xml version="1.0" encoding="UTF-8"?>

<!-- generated on 10/11/18 20:15:32 by Eclipse SUMO duarouter Version 1.0.1
<configuration xmlns:xsi="http://www.w3.org/2001/XMLSchema-instance" xsi:noNamespaceSchemaLocation="http://sumo.dlr.de/xsd/duarouterConfiguration.xsd">

    <input>
        <net-file value="osm.net.xml"/>
        <route-files value="osm.passenger.trips.xml"/>
    </input>

    <output>
        <output-file value="osm.passenger.rou.xml"/>
        <alternatives-output value="osm.passenger.rou.alt.xml"/>
    </output>

    <time>
        <begin value="0"/>
        <end value="3600.0"/>
    </time>

    <report>
        <no-warnings value="true"/>
        <ignore-errors value="true"/>
        <no-step-log value="true"/>
    </report>

</configuration>
-->

<routes xmlns:xsi="http://www.w3.org/2001/XMLSchema-instance" xsi:noNamespaceSchemaLocation="http://sumo.dlr.de/xsd/routes_file.xsd">
    <vType id="veh_passenger" vClass="passenger"/>
    <vehicle id="veh0" type="veh_passenger" depart="0.00" departLane="best">
        <route edges="30184024#0 30184024#9 -478896723#1 -216935642#1 -30185352#1 -30697983 -30185351#3 -30185351#2 -30185351#1 30185350 30185348#0 28828157#23 28828157#27 28828157#29 28033841#0 150260984#0 150260984#1 28851728 -248013838#0"/>
    </vehicle>
    <vehicle id="veh1" type="veh_passenger" depart="1.16" departLane="best">
        <route edges="-549172697 549172697 559428651#0 559428651#1 30435677#0 30435677#1 216935642#0 -30185352#1 -30697983 -30185351#3 -30185351#2 -30185351#1 30185350 30185348#0 28828157#23 28828157#27 28828157#29 28033841#0 28033841#1 28033841#2 474667392#1 474667393#0 474667393#1 27942205#0 27942205#1 -30669522#5 -474711282#1"/>
    </vehicle>
    <vehicle id="veh2" type="veh_passenger" depart="2.33" departLane="best">
        <route edges="30691207 150259964#1 150259964#2 28828157#17 28828157#21 28828157#22 28828157#23 30185349#2 30185351#0 30185351#1 30185351#2 30185351#3"/>
    </vehicle>
    <vehicle id="veh3" type="veh_passenger" depart="3.49" departLane="best">
        <route edges="28277857#0 28277857#1 28277857#2 28277857#3 578004213#0 27942470#0 -559479445#2 -28548799#0 479639292#1 479639292#2 479639292#3 479639292#4 479639292#5 479639292#6 479639292#7 623372708 623372710 30669522#0 30669522#1 30669522#3 -27942205#1 -27942205#0"/>
    </vehicle>
    <vehicle id="veh6" type="veh_passenger" depart="6.98" departLane="best">
        <route edges="30881874#2 30881873#0 30881873#1 248013834#1 150260984#6 -27942205#1 -27942205#0 -474667393#1 -474667393#0 27942206#0 27941979 30185345#2 474667372#0 474667372#1 150266339#0 150266339#1 150266339#4 28711979#2 -478896723#1 -216935642#1 -216935642#0 -30435677#1 -30435677#0 -559428651#1 30697995 528125806#2 30437599"/>
    </vehicle>
    <vehicle id="veh7" type="veh_passenger" depart="8.15" departLane="best">
        <route edges="150266339#0 150266339#1 150266339#4 28711979#2 -478896723#1 -216935642#1 -216935642#0 -30435677#1 -30435677#0 -559428651#1 -30437598#1 -30437598#0 30438381#0 30438381#1 -30438381#1"/>
    </vehicle>
    <vehicle id="veh8" type="veh_passenger" depart="9.31" departLane="best">
        <route edges="549315150 30697987#0 30697987#1 559428652#0 30437598#0 30437598#1 30697995 528125806#2 528125806#3 622301753#0 622301753#1 28078433#1 28078433#2 28078433#3 28828157#1 28828157#3 28828157#7 150269924#0"/>
    </vehicle>
    <vehicle id="veh9" type="veh_passenger" depart="10.48" departLane="best">
        <route edges="31112747 31112746#1 31112746#2 31112746#3 28078433#3 28828157#1 28828157#3 28828157#7 150269924#0 150269924#1 150269924#2 150269924#3 150269924#4 28851724#0 28851724#1 28851724#2 28851724#3"/>
    </vehicle>
    <vehicle id="veh10" type="veh_passenger" depart="11.64" departLane="best">
        <route edges="30881875#2 248013826 248013827 28830296#0 28830296#1 31108049#1 31108049#2 31108049#3 31108049#4 474711282#0 30669522#3 -27942205#1 -27942205#0 -474667393#1 -474667393#0 27942206#0 27941979 30185345#2 474667372#0 474667372#1 150266339#0 150266339#1 150266339#4 28711979#2 -478896723#1 -216935642#1 -216935642#0 -30435677#1 -30435677#0 -559428651#1 -30437598#1 -30437598#0 30438381#0 30438211#2 30438211#3 30438211#4 30438385#0"/>
    </vehicle>
    <vehicle id="veh12" type="veh_passenger" depart="13.97" departLane="best">
        <route edges="31108049#1 31108049#2 31108049#3 31108049#4 474711282#0 30669522#3 -27942205#1 -27942205#0 -474667393#1 -474667393#0 27942206#0 27941979 30185345#2 -440984760#2 -440984760#1 -440984760#0 -478896719 30183473#0 30183473#1"/>
    </vehicle>
    <vehicle id="veh13" type="veh_passenger" depart="15.13" departLane="best">
        <route edges="30438380 30438211#1 -30438381#0 30437598#0 30437598#1 559428651#1 30435677#0 30435677#1 216935642#0 -30185352#1 -30697983 -30185351#3 -30185351#2 -30185351#1 30185350 30185348#0 28828157#23 28828157#27 28828157#29 28033841#0 28033841#1 28033841#2 27941979 478896736 28826180#0 28826180#1 26245234#1 26245234#3 26245234#5 418565935#0 418565935#1 27942468#1 -578004213#0 -28277857#3 -28277857#2 -28277857#1 -28277857#0"/>
    </vehicle>
    <vehicle id="veh14" type="veh_passenger" depart="16.30" departLane="best">
        <route edges="-31106626 28851720#2 30691886#0 30691886#1 30691886#2 150259964#0 150259964#1 150259964#2 28828157#17 28828157#21 28828157#22 28828157#23 28828157#27 28828157#29 28033841#0 28033841#1 28033841#2 27941979 30185345#2 -440984760#2 30183479 30183764#0 30183764#1 140643756"/>
    </vehicle>
    <vehicle id="veh15" type="veh_passenger" depart="17.46" departLane="best">
        <route edges="-28549376#2 -28549377#4 -28549377#2 -28549377#1 -28549377#0 -28549368#4 -28549368#3 -28549368#2 -28549368#0 474667384#0 474667384#1 -474667393#1 -474667393#0 27942206#0 27941979 30185345#2 474667372#0 474667372#1 150266339#0 150266339#1 150266339#4 28711979#2 -478896723#1 -216935642#1 -216935642#0 -30435677#1 -30435677#0 -559428651#1 -559428651#0 -549172697 -478896752"/>
    </vehicle>
    <vehicle id="veh16" type="veh_passenger" depart="18.63" departLane="best">
        <route edges="-28554869#1 28549367 559479445#0 28549376#0 28549376#1 28549376#2 28549376#3 28549376#4 479639292#2 479639292#3 28698634 559479443 -559479443"/>
    </vehicle>
    <vehicle id="veh17" type="veh_passenger" depart="19.79" departLane="best">
        <route edges="30184024#0 30184024#9 -478896723#1 -216935642#1 -30185352#1 -30697983 -30185351#3 -30185351#2 -30185351#1 30185350 30185348#0 28828157#23 28828157#27 28828157#29 28033841#0 28033841#1 28033841#2 27941979 478896736 28826180#0 28826180#1 26245234#1 26245234#3"/>
    </vehicle>
    <vehicle id="veh18" type="veh_passenger" depart="20.95" departLane="best">
        <route edges="216935642#1 -216935642#1 -30185352#1 -30697983 -30185351#3 -30185351#2 -30185351#1 30185350 30185348#0 28828157#23 28828157#27 28828157#29 28033841#0 28033841#1 28033841#2 27941979 30185345#2 -440984760#2 -440984760#1 -440984760#0"/>
    </vehicle>
    <vehicle id="veh19" type="veh_passenger" depart="22.12" departLane="best">
        <route edges="30184029#0 30184029#1 440984760#0 440984760#1 440984760#2 474667372#0 474667372#1 150266339#0 150266339#1 150266339#4 150266393#4 150266393#5 150266393#6 -30185351#3 -30185351#2 -30185351#1 30185350 30185348#0 28828157#23 28828157#27 28828157#29 28033841#0 150260984#0 150260984#1 28851728 28851729"/>
    </vehicle>
    <vehicle id="veh20" type="veh_passenger" depart="23.28" departLane="best">
        <route edges="-30438381#2 -30438381#1 -30438381#0 30437598#0 30437598#1 559428651#1 30435677#0 30435677#1 216935642#0 -30185352#1 -30697983 -30185351#3 -30185351#2 -30185351#1 30185350 30185348#0 28828157#23 28828157#27 28828157#29 28033841#0 28033841#1 28033841#2 27941979 478896736 28826180#0 28826180#1 26245234#1 26245234#3 26245234#5 418565935#0 418565935#1 27942468#1 27942470#0 27942470#1"/>
    </vehicle>
    <vehicle id="veh21" type="veh_passenger" depart="24.45" departLane="best">
        <route edges="622301753#0 622301753#1 28078433#1 28078433#2 28078433#3 28828157#1 28828157#3 28828157#7 28828157#11 28828157#12 28828157#16 28828157#17 28828157#21 28828157#22 28828157#23 28828157#27 28828157#29 28033841#0 28033841#1 28033841#2 27941979 30185345#2 -440984760#2 30183479 30183764#0 30183764#1 30183764#2"/>
    </vehicle>
    <vehicle id="veh22" type="veh_passenger" depart="25.61" departLane="best">
        <route edges="31112746#3 -28078433#2 -28078433#1 -28078433#0 -622301753#0 28074221 549172697 559428651#0 -30437598#1 -30437598#0 30438381#0 30438381#1 30698006#1 30698006#2"/>
    </vehicle>
    <vehicle id="veh23" type="veh_passenger" depart="26.77" departLane="best">
        <route edges="-31106626 28851720#2 30691886#0 30691886#1 30691886#2 150259964#0 150259964#1 150259964#2 28828157#17 -150268735#3 -150268735#0 30697984#1 559428648#0 559428648#1 528125806#0 528125806#1 528125806#2 528125806#3 622301753#0 622301753#1 -28078433#0"/>
    </vehicle>
    <vehicle id="veh24" type="veh_passenger" depart="27.94" departLane="best">
        <route edges="140825894 30438387#1 -30185353 -216935642#0 -30435677#1 -30435677#0 -559428651#1 -30437598#1 -30437598#0 -559428652#0"/>
    </vehicle>
    <vehicle id="veh25" type="veh_passenger" depart="29.10" departLane="best">
        <route edges="-30882128 28709894#2 30884369#0 30884369#1 30884369#2 30881874#1 30881874#2 30881873#0 30881873#1 248013834#1 150260984#6 -27942205#1 -27942205#0 -474667393#1 -474667393#0 27942206#0 27941979 30185345#2 474667372#0 474667372#1 150266339#0 150266339#1 150266339#4 28711979#2 -478896723#1 -216935642#1 -216935642#0 -30435677#1 -30435677#0 -559428651#1 30697995 528125806#2 528125806#3 622301753#0 622301753#1 28078433#1 28078433#2 28078433#3 28828158#1 28828158#2 528059588 528059596"/>
    </vehicle>
    <vehicle id="veh26" type="veh_passenger" depart="30.27" departLane="best">
        <route edges="31113565#0 31113565#1 31113566#1 28078433#1 28078433#2 28078433#3 28828157#1 28828157#3 28828157#7 28828157#11 28828157#12 28828157#16 28828157#17 28828157#21 28828157#22 28828157#23 28828157#27 28828157#29 28033841#0 150260984#0 150260984#1 150260984#2 150260984#3 150260984#4"/>
    </vehicle>
    <vehicle id="veh27" type="veh_passenger" depart="31.43" departLane="best">
        <route edges="30185345#2 474667372#0 474667372#1 150266339#0 150266339#1 150266339#4 28711979#2 -478896723#1 -216935642#1 -216935642#0 -30435677#1 -30435677#0 -559428651#1 30697995 528125806#2 528125806#3 622301753#0 622301753#1 28078433#1"/>
    </vehicle>
    <vehicle id="veh28" type="veh_passenger" depart="32.59" departLane="best">
        <route edges="474711283 28554199 28549368#2 28549368#3 28549368#4 28549377#0 28549377#1 28549377#2 28549377#4"/>
    </vehicle>
    <vehicle id="veh29" type="veh_passenger" depart="33.76" departLane="best">
        <route edges="28828157#17 -150268735#3 -150268735#0 30697984#1 559428648#0 559428648#1 30436090#1 30436090#2 -559428651#1 -30437598#1 -559428650"/>
    </vehicle>
    <vehicle id="veh30" type="veh_passenger" depart="34.92" departLane="best">
        <route edges="28851720#0 28851720#1 28851720#2 30691886#0 30691886#1 30691886#2 150259964#0 150259964#1 150259964#2 28828157#17 28828157#21 28828157#22 28828157#23 28828157#27 28828157#29 28033841#0 28033841#1 28033841#2 27941979 478896736 28826180#0 28826180#1 26245234#1 26245234#3 26245234#5 418565935#0 418565935#1 27942468#1 27942469 418565936"/>
    </vehicle>
    <vehicle id="veh31" type="veh_passenger" depart="36.09" departLane="best">
        <route edges="27942468#1 27942470#0 -559479445#2 -559479445#1 -559479445#0 -28549043#3 -28549043#2 -28549043#1 -28549043#0 474667384#0 474667384#1 -474667393#1"/>
    </vehicle>
    <vehicle id="veh32" type="veh_passenger" depart="37.25" departLane="best">
        <route edges="-28549377#4 28549377#4 -28549376#1 -28549376#0 559479445#1 28548799#1 28549365#0 28549365#1 -578004213#0 -28277857#3 -28277857#2 -28277857#1"/>
    </vehicle>
    <vehicle id="veh33" type="veh_passenger" depart="38.42" departLane="best">
        <route edges="-28698505#2 28698505#2 -28705449#1 -28705449#0 28698503 623372710 30669522#0 30669522#1 30669522#3 -27942205#1 -27942205#0 -474667393#1 -474667393#0 27942206#0 27941979 30185345#2 -440984760#2 30183479"/>
    </vehicle>
    <vehicle id="veh34" type="veh_passenger" depart="39.58" departLane="best">
        <route edges="30697996 -30698006#1 -30438381#1 -30438381#0 30437598#0 30437598#1 559428651#1 30435677#0 30435677#1 216935642#0 -30185352#1 -30697983 -30185351#3 -30185351#2 -30185351#1 30185350 30185348#0 28828157#23 28828157#27 28828157#29 28033841#0 28033841#1 28033841#2 474667392#1 474667393#0 474667393#1 27942205#0 27942205#1 -30669522#5 -30669522#2 -30669522#0 623372711 623372709 -479639292#7 -479639292#6 -479639292#5 -479639292#4 -479639292#3 -479639292#2 -28549376#4 -28549376#3 28549362"/>
    </vehicle>
    <vehicle id="veh35" type="veh_passenger" depart="40.74" departLane="best">
        <route edges="-28549368#3 -28549368#2 -28549368#0 474667384#0 474667384#1 -474667393#1 -474667393#0 27942206#0 27941979 478896736 28826180#0 28826180#1 26245234#1 26245234#3 26245234#5 418565935#0 418565935#1 27942468#1 27942470#0 27942470#1"/>
    </vehicle>
    <vehicle id="veh36" type="veh_passenger" depart="41.91" departLane="best">
        <route edges="623372709 623372708 623372710 30669522#0 30669522#1 30669522#3 30881875#2 248013826 248013827 28830296#0 28830296#1 28706231#2 28706231#3"/>
    </vehicle>
    <vehicle id="veh37" type="veh_passenger" depart="43.07" departLane="best">
        <route edges="559428652#0 30437598#0 30437598#1 30697995 528125806#2 528125806#3 622301753#0 622301753#1 28078433#1 31112754#2 31112754#3 31112754#4 31112754#5 31112746#1"/>
    </vehicle>
    <vehicle id="veh38" type="veh_passenger" depart="44.24" departLane="best">
        <route edges="-150268735#0 30697984#1 559428648#0 559428648#1 30436090#1 30436090#2 -559428651#1 -30437598#1 -30437598#0 30438381#0 30438381#1 30438381#2"/>
    </vehicle>
    <vehicle id="veh40" type="veh_passenger" depart="46.56" departLane="best">
        <route edges="-479639292#3 479639292#3 479639292#4 479639292#5 479639292#6 479639292#7 623372708 623372710 30669522#0 30669522#1 30669522#3 -27942205#1 -27942205#0 -474667393#1 -474667393#0 27942206#0 27941979 30185345#2 -440984760#2 30183479 30183764#0 30183767#1"/>
    </vehicle>
    <vehicle id="veh41" type="veh_passenger" depart="47.73" departLane="best">
        <route edges="28549366 -28556070 -28548799#1 -559479445#1 -559479445#0 -28549043#3 -28549043#2 -28549043#1 -28549043#0 474667384#0 474667384#1 -474667393#1 -474667393#0 27942206#0 27941979 30185345#2 474667372#0 474667372#1 150266339#0 150266339#1 150266339#4 28711979#2 -478896723#1 -216935642#1 -216935642#0 -30435677#1 -30435677#0 -559428651#1 30697995 528125806#2 528125806#3 622301753#0 549315918"/>
    </vehicle>
    <vehicle id="veh42" type="veh_passenger" depart="48.89" departLane="best">
        <route edges="28554870 26245234#5 418565935#0 418565935#1 27942468#1 27942470#0 -559479445#2 -559479445#1 -559479445#0 -28549043#3 -28549043#2 -28549043#1 -28549043#0 474667384#0 474667384#1 -474667393#1 -474667393#0 27942206#0 27941979 30185345#2 474667372#0 474667372#1 150266339#0 150266339#1 150266339#4 28711979#2 -478896723#1 -216935642#1 -216935642#0 -30435677#1 -30435677#0 -559428651#1 30697995 528125806#2 528125806#3 622301753#0 622301753#1 28078433#1 28078433#2 28078433#3 28828158#1 28828158#2 528059588 528059596 329732611 31106628 28851720#0 28851720#1 28851720#2 -30691901"/>
    </vehicle>
    <vehicle id="veh43" type="veh_passenger" depart="50.06" departLane="best">
        <route edges="474711282#0 30669522#3 -27942205#1 -27942205#0 -474667393#1 -474667393#0 27942206#0 27941979 30185345#2 474667372#0 474667372#1 150266339#0 150266339#1 150266339#4 28711979#2 -478896723#1 -216935642#1 -216935642#0 -30435677#1 -30435677#0 -559428651#1 30697995 528125806#2 528125806#3 622301753#0 622301753#1 28078433#1 31112754#2 31112754#3"/>
    </vehicle>
    <vehicle id="veh44" type="veh_passenger" depart="51.22" departLane="best">
        <route edges="-559479445#3 -559479445#2 -559479445#1 -559479445#0 -28549043#3 -28549043#2 -28549043#1 -28549043#0 474667384#0 474667384#1 -474667393#1 -474667393#0 27942206#0 27941979 30185345#2 -440984760#2 30183479 30183764#0 30183764#1 30183764#2"/>
    </vehicle>
    <vehicle id="veh45" type="veh_passenger" depart="52.38" departLane="best">
        <route edges="30183475 -30183473#0 478896719 440984760#0 440984760#1 440984760#2 474667372#0 474667372#1 150266339#0 150266339#1 150266339#4 28711979#2 -478896723#1 -216935642#1 -216935642#0 -30435677#1 -30435677#0 -559428651#1 -30437598#1 -30437598#0 30438381#0 -30438381#0"/>
    </vehicle>
    <vehicle id="veh46" type="veh_passenger" depart="53.55" departLane="best">
        <route edges="30697987#0 -30697987#0 30438385#2 30438385#3 30438385#4 216935642#0 -30185352#1 -30697983 -30185351#3 -30185351#2 -30185351#1 30185350 30185348#0 28828157#23 28828157#27 28828157#29 28033841#0 28033841#1 28033841#2 474667392#1 474667393#0 474667393#1 27942205#0 27942205#1 30881875#2 248013826 248013827 28830296#0 28830296#1 28706231#2 28706231#3"/>
    </vehicle>
    <vehicle id="veh47" type="veh_passenger" depart="54.71" departLane="best">
        <route edges="-248013837 -248013838#0 150260984#2 150260984#3 150260984#4 150260984#5 150260984#6 -30669522#5 -30669522#2 -30669522#0 623372711 623372709 -479639292#7 -479639292#6 -479639292#5 -479639292#4 -479639292#3 -479639292#2 -479639292#1 479639292#1"/>
    </vehicle>
    <vehicle id="veh48" type="veh_passenger" depart="55.88" departLane="best">
        <route edges="31113565#1 31113566#1 28078433#1 28078433#2 28078433#3 28828158#1 28828158#2 528059588 528059596 329732611 31106628 28851720#0 31106627"/>
    </vehicle>
    <vehicle id="veh49" type="veh_passenger" depart="57.04" departLane="best">
        <route edges="140825894 30438387#1 -30185353 -30185352#1 -30697983 -30185351#3 -30185351#2 -30185351#1 30185350 30185348#0 28828157#23 28828157#27 28828157#29 28033841#0 28033841#1 28033841#2 474667392#1 474667393#0 474667393#1 27942205#0 27942205#1 28549379 28549043#0 28549043#1 -28549043#1"/>
    </vehicle>
    <vehicle id="veh50" type="veh_passenger" depart="58.20" departLane="best">
        <route edges="-28549377#0 -28549373#1 -28549373#0 -479639292#6 -479639292#5 -479639292#4 -479639292#3 28698502"/>
    </vehicle>
    <vehicle id="veh51" type="veh_passenger" depart="59.37" departLane="best">
        <route edges="-28549373#1 28549373#1 -28549368#4 -28549368#3 -28549368#2 -28549368#0 474667384#0 474667384#1 -474667393#1 -474667393#0 27942206#0 27941979 30185345#2 474667372#0 474667372#1 150266339#0 150266339#1 150266339#4 28711979#2 -478896723#1 -216935642#1 30185353 30438387#2 30697985#0 30697986#0"/>
    </vehicle>
    <vehicle id="veh52" type="veh_passenger" depart="60.53" departLane="best">
        <route edges="28549375 -28549374#0 -28549377#2 -28549377#1 -28549377#0 -28549368#4 -28549368#3 -28549368#2 -28549368#0 474667384#0 474667384#1 -474667393#1 -474667393#0 27942206#0 27941979 478896736 28826180#0 28826180#1 28826179#1 28826179#2"/>
    </vehicle>
    <vehicle id="veh53" type="veh_passenger" depart="61.70" departLane="best">
        <route edges="-479639292#2 479639292#2 479639292#3 479639292#4 479639292#5 479639292#6 479639292#7 623372708 623372710 30669522#0 30669522#1 30669522#3 -27942205#1 -27942205#0 -474667393#1 -474667393#0 27942206#0 27941979 30185345#2 474667372#0 474667372#1 150266339#0 150266339#1 150266339#4 28711979#2 -478896723#1 -216935642#1 -216935642#0 -30435677#1 -30435677#0 -559428651#1 30697995 528125806#2 528125806#3 622301753#0 622301753#1 28078433#1 31112754#2 31112754#3 31112754#4"/>
    </vehicle>
    <vehicle id="veh54" type="veh_passenger" depart="62.86" departLane="best">
        <route edges="28277857#0 28277857#1 28277857#2 28277857#3 578004213#0 27942470#0 -559479445#2 -559479445#1 -559479445#0 -28549043#3 -28549043#2 -28549043#1 -28549043#0 474667384#0 474667384#1 -474667393#1 -474667393#0 27942206#0 27941979 30185345#2 -440984760#2 -440984760#1"/>
    </vehicle>
    <vehicle id="veh56" type="veh_passenger" depart="65.19" departLane="best">
        <route edges="-30698006#3 -30698006#1 -30438381#1 -30438381#0 30437598#0 30437598#1 559428651#1 30435677#0 30435677#1 216935642#0 -30185352#1 -30697983 -30185351#3 -30185351#2 -30185351#1 30185350 30185348#0 28828157#23 28828157#27 28828157#29 28033841#0 150260984#0 150260984#1 150260984#2"/>
    </vehicle>
    <vehicle id="veh57" type="veh_passenger" depart="66.35" departLane="best">
        <route edges="623372709 623372708 623372710 30669522#0 30669522#1 30669522#3 -27942205#1 -27942205#0 -474667393#1 -474667393#0 27942206#0 27941979 30185345#2 474667372#0 474667372#1 150266339#0 150266339#1 150266339#4 28711979#2 30184026#1"/>
    </vehicle>
    <vehicle id="veh58" type="veh_passenger" depart="67.52" departLane="best">
        <route edges="28549043#1 -28549043#1 -28549043#0 474667384#0 474667384#1 -474667393#1 474667393#1 27942205#0 27942205#1 -30669522#5 -30669522#2 -30669522#0 623372711 20966904 28705449#0 28705119"/>
    </vehicle>
    <vehicle id="veh59" type="veh_passenger" depart="68.68" departLane="best">
        <route edges="150260984#6 -27942205#1 -27942205#0 -474667393#1 -474667393#0 27942206#0 27941979 30185345#2 474667372#0 474667372#1 150266339#0 150266339#1 150266339#4 28711979#2 -478896723#1 -216935642#1 -216935642#0 -30435677#1 -30435677#0 -559428651#1 30697995 528125806#2 528125806#3 622301753#0 622301753#1 28078433#1 28078433#2 28078433#3 28828158#1 28828158#2 528059588 528059596 329732611 31106628 -28851719 28851707"/>
    </vehicle>
    <vehicle id="veh60" type="veh_passenger" depart="69.85" departLane="best">
        <route edges="-31106626 28851720#2 30691886#0 30691886#1 30691886#2 150259964#0 150259964#1 150259964#2 28828157#17 28828157#21 28828157#22 28828157#23 28828157#27 28828157#29 28033841#0 28033841#1 28033841#2 474667392#1 474667393#0 474667393#1 27942205#0 27942205#1 -30669522#5 -474711282#1"/>
    </vehicle>
    <vehicle id="veh61" type="veh_passenger" depart="71.01" departLane="best">
        <route edges="-28549374#0 -28549377#2 -28549377#1 -28549377#0 -28549368#4 -28549368#3 -28549368#2 -28549368#0 474667384#0 474667384#1 -474667393#1 -474667393#0 27942206#0 27941979 30185345#2 -440984760#2 30183479 30183764#0 30183764#1"/>
    </vehicle>
    <vehicle id="veh62" type="veh_passenger" depart="72.17" departLane="best">
        <route edges="-31106626 28851720#2 30691886#0 30691886#1 30691886#2 150259964#0 150259964#1 150259964#2 28828157#17 28828157#21 28828157#22 28828157#23 28828157#27 28828157#29 28033841#0 28033841#1 28033841#2 27941979 30185345#2 -440984760#2 -440984760#1 440984760#1"/>
    </vehicle>
    <vehicle id="veh63" type="veh_passenger" depart="73.34" departLane="best">
        <route edges="31112754#4 31112751 31112754#3 -31112749 31112746#2 31112746#3 28078433#3 28828157#1 28828157#3 28828157#7 28828157#11 28828157#12 28828157#16 28828157#17 28828157#21 28828157#22 28828157#23 28828157#27 28828157#29 28033841#0 28033841#1 28033841#2 27941979 478896736 28826180#0 28826180#1 28549361#0 28554869#0 28549367 -28549367"/>
    </vehicle>
    <vehicle id="veh64" type="veh_passenger" depart="74.50" departLane="best">
        <route edges="-31106627 28851720#1 28851720#2 30691886#0 30691886#1 30691886#2 150259964#0 150259964#1 150259964#2 28828157#17 28828157#21 28828157#22 28828157#23 30185349#2 30185351#0 30185350"/>
    </vehicle>
    <vehicle id="veh66" type="veh_passenger" depart="76.83" departLane="best">
        <route edges="479639292#3 479639292#4 479639292#5 479639292#6 479639292#7 623372708 623372710 30669522#0 30669522#1 30669522#3 -27942205#1 -27942205#0 -474667393#1 -474667393#0 27942206#0 27941979 30185345#2 474667372#0 474667372#1 150266339#0 150266339#1 150266339#4 150266393#4 150266393#5 150266393#6 -30185351#3 -30185351#2 -30185351#1 30185350 30185348#0 28828157#23 28828157#27"/>
    </vehicle>
    <vehicle id="veh67" type="veh_passenger" depart="77.99" departLane="best">
        <route edges="28549374#0 28549374#1 479639292#5 479639292#6 479639292#7 623372708 623372710 30669522#0 30669522#1 30669522#3 30881875#2 248013826 248013827 30881874#0 30881874#1 30881874#2 30881873#0 30881873#1"/>
    </vehicle>
    <vehicle id="veh68" type="veh_passenger" depart="79.16" departLane="best">
        <route edges="30881875#2 248013826 248013827 28830296#0 28830296#1 31108049#1 31108049#2 31108049#3 31108049#4 474711282#0 30669522#3 -27942205#1 -27942205#0 -474667393#1 -474667393#0 27942206#0 27941979 30185345#2 474667372#0 474667372#1 150266339#0 150266339#1 150266339#4 28711979#2 -478896723#1 -216935642#1 -216935642#0 -30435677#1 -30435677#0 -559428653#1 -559428653#0 -30697987#1"/>
    </vehicle>
    <vehicle id="veh69" type="veh_passenger" depart="80.32" departLane="best">
        <route edges="28277857#0 28277857#1 28277857#2 28277857#3 578004213#0 27942470#0 -559479445#2 -559479445#1 -559479445#0 -28549367 28554869#1"/>
    </vehicle>
    <vehicle id="veh70" type="veh_passenger" depart="81.49" departLane="best">
        <route edges="30669522#1 30669522#3 -27942205#1 -27942205#0 -474667393#1 -474667393#0 27942206#0 27941979 30185345#2 474667372#0 474667372#1 150266339#0 150266339#1 150266339#4 150266393#4 150266393#5 150266393#6 -30185351#3 -30185351#2 -30185351#1 30185351#1"/>
    </vehicle>
    <vehicle id="veh71" type="veh_passenger" depart="82.65" departLane="best">
        <route edges="27942470#0 -559479445#2 -559479445#1 -559479445#0 -28549043#3 -28549043#2 -28549043#1 -28549043#0 474667384#0 474667384#1 -474667393#1 -474667393#0 27942206#0 27941979 30185345#2 474667372#0 474667372#1 150266339#0 150266339#1 150266339#4 28711979#2 -478896723#1 -216935642#1 -216935642#0 -30435677#1 -30435677#0 -559428651#1 30697995 528125806#2 528125806#3 622301753#0 622301753#1 28078433#1 28078433#2 28078433#3 28828157#1 28828157#3 28828157#7 150269924#0 150269924#1"/>
    </vehicle>
    <vehicle id="veh72" type="veh_passenger" depart="83.81" departLane="best">
        <route edges="31112754#5 31112746#1 31112746#2 31112746#3 28078433#3 28828157#1 28828157#3 28828157#7 28828157#11 28828157#12 28828157#16 28828157#17 28828157#21 28828157#22 28828157#23 28828157#27 28828157#29 28033841#0 28033841#1 28033841#2 474667392#1 474667393#0 474667393#1 27942205#0 27942205#1 -30669522#5 -30669522#2 -30669522#0 623372711 623372709 -479639292#7 -479639292#6 -479639292#5 -479639292#4 -479639292#3 -479639292#2 -479639292#1"/>
    </vehicle>
    <vehicle id="veh73" type="veh_passenger" depart="84.98" departLane="best">
        <route edges="-30697987#1 -30697986#0 -30697985#0 30438385#4 216935642#0 -30185352#1 -30697983 -30185351#3 -30185351#2 -30185351#1 30185350 30185348#0 28828157#23 28828157#27 28828157#29 28033841#0 28033841#1 28033841#2 27941979 478896736 28826180#0 28826180#1 28549361#0 28549361#1 28549376#0 28549376#1"/>
    </vehicle>
    <vehicle id="veh74" type="veh_passenger" depart="86.14" departLane="best">
        <route edges="28277857#0 28277857#1 28277857#2 28277857#3 578004213#0 27942470#0 -559479445#2 -28548799#0 479639292#1 479639292#2 479639292#3 28698634 559479443 -559479443"/>
    </vehicle>
    <vehicle id="veh75" type="veh_passenger" depart="87.31" departLane="best">
        <route edges="-440984760#2 440984760#2 474667372#0 474667372#1 150266339#0 150266339#1 150266339#4 28711979#2 -478896723#1 -216935642#1 -216935642#0 -30435677#1 -30435677#0 -559428651#1 30697995 528125806#2 528125806#3 622301753#0 622301753#1 28078433#1 28078433#2 28078433#3 28828157#1 28828157#3 28828157#7 28828157#11 28828157#12 475489216#2"/>
    </vehicle>
    <vehicle id="veh76" type="veh_passenger" depart="88.47" departLane="best">
        <route edges="28549361#0 28554869#0 28549367 -28549043#3 -28549043#2 -28549043#1 -28549043#0 474667384#0 474667384#1 -474667393#1 -474667393#0 27942206#0 27941979 30185345#2 474667372#0 474667372#1 150266339#0 150266339#1 150266339#4 28711979#2 -478896723#1 -216935642#1 -216935642#0 -30435677#1 -30435677#0 -559428651#1 30697995 528125806#2 528125806#3 622301753#0 622301753#1 28078433#1 31112754#2 31112754#3 -31112749 31112746#2"/>
    </vehicle>
    <vehicle id="veh77" type="veh_passenger" depart="89.64" departLane="best">
        <route edges="28826180#0 28826180#1 26245234#1 26245234#3 26245234#5 418565935#0 418565935#1 27942468#1 -578004213#0 -28277857#3"/>
    </vehicle>
    <vehicle id="veh78" type="veh_passenger" depart="90.80" departLane="best">
        <route edges="623372711 623372710 30669522#0 30669522#1 30669522#3 -27942205#1 -27942205#0 -474667393#1 -474667393#0 27942206#0 27941979 30185345#2 474667372#0 474667372#1 150266339#0 150266339#1 150266339#4 28711979#2 -478896723#1 -216935642#1 -216935642#0 -30435677#1 -30435677#0 -559428651#1 30697995 528125806#2 528125806#3 622301753#0 622301753#1 28078433#1 28078433#2 28078433#3 28828158#1 28828158#2 528059588 528059596 31107804"/>
    </vehicle>
    <vehicle id="veh79" type="veh_passenger" depart="91.96" departLane="best">
        <route edges="559428651#1 30435677#0 30435677#1 216935642#0 216935642#1 478896723#0"/>
    </vehicle>
    <vehicle id="veh80" type="veh_passenger" depart="93.13" departLane="best">
        <route edges="31112747 31112746#1 31112746#2 31112746#3 28078433#3 28828157#1 28828157#3 28828157#7 150269924#0 150269924#1 150269924#2 150269924#3 150269924#4 150259960 -30691207"/>
    </vehicle>
    <vehicle id="veh81" type="veh_passenger" depart="94.29" departLane="best">