<?xml version="1.0" encoding="UTF-8"?>

<!-- generated on 10/11/18 20:15:31 by Eclipse SUMO polyconvert Version 1.0.1
<configuration xmlns:xsi="http://www.w3.org/2001/XMLSchema-instance" xsi:noNamespaceSchemaLocation="http://sumo.dlr.de/xsd/polyconvertConfiguration.xsd">

    <input>
        <net-file value="C:\Users\Admin\Sumo\2018-10-11-20-15-25\osm.net.xml"/>
        <osm-files value="C:\Users\Admin\Sumo\2018-10-11-20-15-25\osm_bbox.osm.xml"/>
        <osm.keep-full-type value="true"/>
        <type-file value="C:\Program%20Files%20(x86)\Eclipse\Sumo\data\typemap\osmPolyconvert.typ.xml"/>
    </input>

    <output>
        <output-file value="C:\Users\Admin\Sumo\2018-10-11-20-15-25\osm.poly.xml"/>
    </output>

    <processing>
        <poi-layer-offset value="5"/>
    </processing>

    <report>
        <verbose value="true"/>
    </report>

</configuration>
-->

<additional xmlns:xsi="http://www.w3.org/2001/XMLSchema-instance" xsi:noNamespaceSchemaLocation="http://sumo.dlr.de/xsd/additional_file.xsd">
    <location netOffset="-374569.14,-5289046.63" convBoundary="-1353.74,-967.16,2767.68,3165.48" origBoundary="7.308301,47.733823,7.363356,47.771277" projParameter="+proj=utm +zone=32 +ellps=WGS84 +datum=WGS84 +units=m +no_defs"/>

    <poly id="109424766" type="building.yes" color="255,230,230" fill="1" layer="-1.00" shape="953.456138,587.612030 983.101134,618.097366 991.195737,609.162114 989.103695,607.072192 973.677651,591.658981 961.991546,578.600565 957.738353,583.083747 953.456138,587.612030"/>
    <poly id="109424769" type="building.yes" color="255,230,230" fill="1" layer="-1.00" shape="983.101134,618.097366 953.456138,587.612030 947.104973,595.320211 940.768340,603.005850 973.188939,628.995177 983.101134,618.097366"/>
    <poly id="109427952" type="building.yes" color="255,230,230" fill="1" layer="-1.00" shape="807.270052,387.888847 809.598162,383.157826 807.211449,382.019391 804.862046,386.806465 807.270052,387.888847"/>
    <poly id="109439663" type="building.yes" color="255,230,230" fill="1" layer="-1.00" shape="689.053894,452.828394 691.236485,449.356872 690.254724,448.688619 692.551339,445.637160 695.379971,447.099609 690.925314,454.066811 689.053894,452.828394"/>
    <poly id="109439664" type="building.yes" color="255,230,230" fill="1" layer="-1.00" shape="700.097403,449.911293 705.597311,453.540065 708.965085,447.641409 709.073697,447.461174 704.049926,443.655378 702.396587,446.281606 700.097403,449.911293"/>
    <poly id="109439665" type="building.yes" color="255,230,230" fill="1" layer="-1.00" shape="710.128146,456.044443 711.547534,453.000734 709.213297,451.861212 707.755953,454.883500 710.128146,456.044443"/>
    <poly id="109439666" type="building.yes" color="255,230,230" fill="1" layer="-1.00" shape="729.299201,435.963151 728.753030,436.719851 730.459631,437.617142 731.058510,436.870428 729.299201,435.963151"/>
    <poly id="109439667" type="building.yes" color="255,230,230" fill="1" layer="-1.00" shape="713.268639,425.622635 715.066540,426.929353 712.203816,430.159756 713.881306,431.446825 710.364735,436.703787 708.860124,435.435239 708.670254,435.672816 707.237972,434.280407 703.648802,437.904472 703.045888,437.417090 706.328778,433.499403 710.503121,428.839829 713.268639,425.622635"/>
    <poly id="109439668" type="building.yes" color="255,230,230" fill="1" layer="-1.00" shape="702.396587,446.281606 700.097403,449.911293 699.837834,450.394982 695.958398,447.843248 696.205126,447.459904 698.197942,443.881278 702.396587,446.281606"/>
    <poly id="109439669" type="building.yes" color="255,230,230" fill="1" layer="-1.00" shape="710.337336,448.334626 713.353354,449.793054 717.225527,442.938462 714.765949,441.201218 714.354491,440.898738 710.337336,448.334626"/>
    <poly id="109442158" type="building.yes" color="255,230,230" fill="1" layer="-1.00" shape="686.419262,491.422772 684.240205,490.524536 683.738802,490.223993 682.757073,492.346557 684.798100,493.103217 685.546621,493.387327 686.419262,491.422772"/>
    <poly id="109442160" type="building.yes" color="255,230,230" fill="1" layer="-1.00" shape="668.598850,503.158315 671.545803,504.195692 673.449695,499.273595 671.945399,498.716653 670.971054,498.392926 668.835926,502.675108 668.598850,503.158315"/>
    <poly id="109442163" type="building.yes" color="255,230,230" fill="1" layer="-1.00" shape="670.971054,498.392926 671.945399,498.716653 675.242628,492.330265 674.098359,491.776698 674.019493,491.945176 672.851964,494.494252 670.971054,498.392926"/>
    <poly id="109442168" type="building.yes" color="255,230,230" fill="1" layer="-1.00" shape="679.374598,506.973797 681.920609,508.197702 682.984395,505.706453 680.462543,504.559859 679.374598,506.973797"/>
    <poly id="109442169" type="building.yes" color="255,230,230" fill="1" layer="-1.00" shape="681.506464,532.178720 679.917497,535.704193 671.794194,532.131870 673.307963,528.596893 681.506464,532.178720"/>
    <poly id="109442171" type="building.yes" color="255,230,230" fill="1" layer="-1.00" shape="671.545803,504.195692 674.266453,505.171225 676.095391,500.250741 673.449695,499.273595 671.545803,504.195692"/>
    <poly id="109442172" type="building.yes" color="255,230,230" fill="1" layer="-1.00" shape="674.266453,505.171225 676.889182,506.126628 678.778803,501.238196 676.095391,500.250741 674.266453,505.171225"/>
    <poly id="109442175" type="building.yes" color="255,230,230" fill="1" layer="-1.00" shape="681.920609,508.197702 684.404742,509.333990 685.528971,506.863679 682.984395,505.706453 681.920609,508.197702"/>
    <poly id="109442176" type="building.yes" color="255,230,230" fill="1" layer="-1.00" shape="674.019493,491.945176 674.098359,491.776698 676.714191,486.483489 674.138665,485.282458 671.513102,490.820490 674.019493,491.945176"/>
    <poly id="109442178" type="building.yes" color="255,230,230" fill="1" layer="-1.00" shape="676.889182,506.126628 679.374598,506.973797 680.462543,504.559859 680.273001,504.463866 681.416763,502.204392 680.540101,501.889682 678.778803,501.238196 676.889182,506.126628"/>
    <poly id="109442878" type="building.yes" color="255,230,230" fill="1" layer="-1.00" shape="755.618926,514.707690 757.465108,516.169046 755.539448,519.034605 751.600815,524.889911 749.716678,523.407135 755.618926,514.707690"/>
    <poly id="109444874" type="building.yes" color="255,230,230" fill="1" layer="-1.00" shape="761.841865,566.287408 763.661106,564.402589 765.516871,562.472512 752.959393,551.812644 751.932141,553.213453 751.475449,553.945991 755.079186,557.281999 754.478406,557.939801 755.656846,559.037470 755.003836,559.707514 761.841865,566.287408"/>
    <poly id="109444875" type="building.yes" color="255,230,230" fill="1" layer="-1.00" shape="751.932141,553.213453 749.377327,551.578312 748.486970,550.974798 747.345198,550.187669 747.070581,549.971196 745.216071,552.657330 747.601595,554.440653 749.962002,556.102209 751.475449,553.945991 751.932141,553.213453"/>
    <poly id="109446194" type="building.yes" color="255,230,230" fill="1" layer="-1.00" shape="710.834908,575.411670 713.111434,577.008303 716.614207,571.462547 714.370529,569.998632 710.834908,575.411670"/>
    <poly id="109446962" type="building.yes" color="255,230,230" fill="1" layer="-1.00" shape="700.795142,582.799168 697.858444,581.539181 696.280802,585.242307 699.241028,586.201580 700.795142,582.799168"/>
    <poly id="109446963" type="building.yes" color="255,230,230" fill="1" layer="-1.00" shape="695.789012,594.803924 702.002927,598.862086 703.582435,597.338204 700.376646,595.072192 696.497217,592.865144 695.789012,594.803924"/>
    <poly id="109447408" type="building.yes" color="255,230,230" fill="1" layer="-1.00" shape="797.463141,480.129682 796.245067,478.932788 792.770937,476.394521 790.718483,478.595665 795.395934,482.342260 797.463141,480.129682"/>
    <poly id="109500682" type="building.yes" color="255,230,230" fill="1" layer="-1.00" shape="750.169078,457.930009 749.816271,458.960521 744.958287,466.703545 747.673743,468.135094 752.653901,460.144833 750.497603,458.212037 750.169078,457.930009"/>
    <poly id="109500712" type="building.yes" color="255,230,230" fill="1" layer="-1.00" shape="754.971648,467.844809 756.665542,469.198250 759.575723,465.733355 757.887413,464.290843 754.971648,467.844809"/>
    <poly id="109500713" type="building.yes" color="255,230,230" fill="1" layer="-1.00" shape="745.018918,478.944023 748.358987,480.128652 751.751762,481.323269 758.559191,470.425092 760.503592,468.081714 760.847823,468.396761 762.870617,465.862679 759.248007,465.139984 756.340508,462.100334 755.843462,462.700312 754.967368,462.063134 748.545499,472.408207 745.018918,478.944023"/>
    <poly id="109500736" type="building.yes" color="255,230,230" fill="1" layer="-1.00" shape="758.300132,484.540396 762.066308,486.360764 765.840216,488.192087 773.218598,479.783383 776.006850,476.576849 772.024769,473.782659 771.931146,473.962571 767.083605,469.630354 764.922931,472.378654 763.142297,475.363400 758.300132,484.540396"/>
    <poly id="109500737" type="building.yes" color="255,230,230" fill="1" layer="-1.00" shape="767.381693,476.172911 769.967564,477.507186 771.971307,474.784498 769.588002,472.756504 767.381693,476.172911"/>
    <poly id="109500741" type="building.yes" color="255,230,230" fill="1" layer="-1.00" shape="762.624554,470.115343 762.923573,470.420242 764.922931,472.378654 767.083605,469.630354 768.111354,468.251775 765.495110,466.551234 762.624554,470.115343"/>
    <poly id="109500742" type="building.yes" color="255,230,230" fill="1" layer="-1.00" shape="761.085214,473.161617 761.457482,474.432276 763.142297,475.363400 764.922931,472.378654 762.923573,470.420242 761.085214,473.161617"/>
    <poly id="109500823" type="building.yes" color="255,230,230" fill="1" layer="-1.00" shape="826.707466,447.212484 828.690191,444.556982 831.933342,446.466461 846.788955,455.186951 845.079746,457.658672 843.473330,460.028117 829.323557,450.302903 826.707466,447.212484"/>
    <poly id="109500824" type="building.yes" color="255,230,230" fill="1" layer="-1.00" shape="829.055764,449.007759 831.320033,450.382326 832.400032,448.991518 829.895423,447.599876 829.055764,449.007759"/>
    <poly id="109500890" type="building.yes" color="255,230,230" fill="1" layer="-1.00" shape="807.864734,432.673630 808.826181,430.651594 812.624649,432.927171 812.205657,433.670012 812.874351,434.078160 811.993395,435.309032 808.747367,433.266200 807.864734,432.673630"/>
    <poly id="109500891" type="building.yes" color="255,230,230" fill="1" layer="-1.00" shape="812.205657,433.670012 812.874351,434.078160 813.398761,433.355292 812.624649,432.927171 812.205657,433.670012"/>
    <poly id="109501090" type="building.yes" color="255,230,230" fill="1" layer="-1.00" shape="809.554325,445.346095 815.477310,448.076377 818.505170,442.407468 819.304484,440.867024 820.422866,438.819382 815.176347,435.463029 814.390592,436.936469 809.554325,445.346095"/>
    <poly id="109501144" type="building.yes" color="255,230,230" fill="1" layer="-1.00" shape="794.074390,422.929656 797.937559,424.725727 797.033121,426.957797 793.040616,425.075555 794.074390,422.929656"/>
    <poly id="109503128" type="building.yes" color="255,230,230" fill="1" layer="-1.00" shape="875.886727,410.187058 880.689874,414.898356 880.289639,415.118207 887.937677,423.448742 887.834646,423.539904 885.294159,425.017651 882.703351,426.596550 875.357874,416.291502 871.373906,411.662687 870.087548,412.524217 866.738498,410.572515 868.450552,407.533682 874.339560,409.030571 874.455913,408.861291 875.886727,410.187058"/>
    <poly id="109503129" type="building.yes" color="255,230,230" fill="1" layer="-1.00" shape="878.020133,429.565748 869.893860,418.521395 867.035626,414.980288 866.225415,415.664812 863.217882,412.504951 865.628609,409.873628 866.738498,410.572515 870.087548,412.524217 871.373906,411.662687 875.357874,416.291502 882.703351,426.596550 880.312542,428.059967 878.020133,429.565748"/>
    <poly id="109503130" type="building.yes" color="255,230,230" fill="1" layer="-1.00" shape="878.825041,405.932191 879.451861,406.485789 879.918168,406.898291 884.080341,403.061899 882.254695,400.810629 878.825041,405.932191"/>
    <poly id="109504286" type="building.yes" color="255,230,230" fill="1" layer="-1.00" shape="834.748401,400.863486 839.557752,403.417576 840.443923,401.730726 836.407731,399.560305 835.709290,399.163912 834.748401,400.863486"/>
    <poly id="109504815" type="building.yes" color="255,230,230" fill="1" layer="-1.00" shape="1087.518243,411.806582 1090.113115,413.563317 1091.937368,410.855713 1089.366174,409.154063 1087.518243,411.806582"/>
    <poly id="109504816" type="building.yes" color="255,230,230" fill="1" layer="-1.00" shape="1098.022403,413.104699 1098.600415,413.481467 1095.767604,417.767313 1091.216559,414.662660 1083.240736,409.218653 1077.806832,405.510285 1079.239654,403.433718 1080.672478,401.357151 1098.022403,413.104699"/>
    <poly id="109504950" type="building.yes" color="255,230,230" fill="1" layer="-1.00" shape="1107.521820,410.910843 1109.237458,408.383472 1114.624810,411.670354 1112.801499,414.422406 1107.521820,410.910843"/>
    <poly id="109504951" type="building.yes" color="255,230,230" fill="1" layer="-1.00" shape="1109.466003,419.397261 1107.576903,422.228556 1102.395149,418.737137 1104.163363,415.863956 1109.466003,419.397261"/>
    <poly id="109504952" type="building.yes" color="255,230,230" fill="1" layer="-1.00" shape="1112.801499,414.422406 1111.100615,416.938340 1105.820461,413.404552 1107.521820,410.910843 1112.801499,414.422406"/>
    <poly id="109505056" type="building.yes" color="255,230,230" fill="1" layer="-1.00" shape="1111.597919,385.205873 1110.516373,384.428501 1110.909949,383.897485 1108.095551,382.045376 1105.613476,386.601667 1110.699562,388.427327 1111.597919,385.205873"/>
    <poly id="109505143" type="building.yes" color="255,230,230" fill="1" layer="-1.00" shape="1109.132475,370.593072 1102.807076,369.027469 1100.567691,372.311023 1098.351274,375.616323 1108.095551,382.045376 1110.909949,383.897485 1111.807549,384.489780 1112.063119,384.517659 1112.852739,381.821117 1109.685087,379.932102 1112.585502,375.300135 1108.570936,373.084589 1109.132475,370.593072"/>
    <poly id="109505144" type="building.yes" color="255,230,230" fill="1" layer="-1.00" shape="1109.685087,379.932102 1112.852739,381.821117 1114.368920,376.284840 1112.585502,375.300135 1109.685087,379.932102"/>
    <poly id="109521534" type="amenity.pub" color="237,199,199" fill="1" layer="-1.00" shape="510.502035,488.137002 521.192121,482.047188 516.874965,475.190902 512.612183,468.422399 501.848874,474.246953 506.683739,482.159484 510.502035,488.137002"/>
    <poly id="109521534#1" type="building.yes" color="255,230,230" fill="1" layer="-1.00" shape="510.502035,488.137002 521.192121,482.047188 516.874965,475.190902 512.612183,468.422399 501.848874,474.246953 506.683739,482.159484 510.502035,488.137002"/>
    <poly id="109521535" type="building.yes" color="255,230,230" fill="1" layer="-1.00" shape="506.683739,482.159484 501.065708,485.238079 504.811445,491.328343 510.502035,488.137002 506.683739,482.159484"/>
    <poly id="109521538" type="building.yes" color="255,230,230" fill="1" layer="-1.00" shape="501.848874,474.246953 499.255554,475.703775 499.433220,475.944562 495.461507,478.164913 499.072119,486.337301 501.065708,485.238079 506.683739,482.159484 501.848874,474.246953"/>
    <poly id="109522684" type="building.yes" color="255,230,230" fill="1" layer="-1.00" shape="525.635941,514.985457 523.685289,510.068475 522.353626,510.564140 522.620442,511.114335 516.559627,513.479728 518.404944,518.032055 525.635941,514.985457"/>
    <poly id="109523676" type="building.yes" color="255,230,230" fill="1" layer="-1.00" shape="527.082539,518.434493 528.971623,522.930287 525.508352,524.383592 520.388164,526.550826 521.973513,530.174773 518.600195,531.626146 513.463211,520.128739 518.404944,518.032055 519.724599,521.506060 527.082539,518.434493"/>
    <poly id="109523679" type="building.yes" color="255,230,230" fill="1" layer="-1.00" shape="523.685289,510.068475 525.635941,514.985457 525.745905,515.216584 537.003228,509.003396 535.585891,504.475204 534.161057,499.947175 522.193550,506.264611 523.685289,510.068475"/>
    <poly id="109529162" type="building.yes" color="255,230,230" fill="1" layer="-1.00" shape="740.595359,604.225520 738.503999,602.869510 728.729900,596.452833 739.080812,586.445780 747.474201,580.261212 751.726212,583.405383 756.039377,586.603835 759.086309,588.806579 754.473665,595.399092 753.299532,594.501470 752.673074,595.359963 751.956134,595.497680 750.585207,594.515338 749.608760,595.837224 748.905379,595.907937 747.153704,594.655811 744.163359,598.922991 743.112736,598.189498 741.438465,600.538196 742.367010,601.174244 740.595359,604.225520"/>
    <poly id="109529166" type="building.yes" color="255,230,230" fill="1" layer="-1.00" shape="740.595359,604.225520 746.210250,607.629477 746.380586,607.181064 748.349839,603.903167 742.838927,600.452498 742.367010,601.174244 740.595359,604.225520"/>
    <poly id="109541462" type="building.yes" color="255,230,230" fill="1" layer="-1.00" shape="838.188103,635.017787 830.920724,634.973756 831.081079,631.267758 829.872403,631.204771 830.107136,626.073971 834.334954,626.350073 838.532789,626.626823 838.417733,628.252636 838.188103,635.017787"/>
    <poly id="109543429" type="building.yes" color="255,230,230" fill="1" layer="-1.00" shape="815.962274,657.399240 815.410863,657.911432 815.433691,659.323027 816.460520,660.346132 817.868701,660.271404 818.330168,659.761145 815.962274,657.399240"/>
    <poly id="109543430" type="building.yes" color="255,230,230" fill="1" layer="-1.00" shape="829.878754,650.351176 815.734988,650.310340 815.962274,657.399240 818.330168,659.761145 824.185276,659.690953 829.972687,659.611103 829.878754,650.351176"/>
    <poly id="109543431" type="building.yes" color="255,230,230" fill="1" layer="-1.00" shape="829.002392,643.765445 829.010986,644.165537 830.761002,644.294726 830.745633,645.673785 837.781595,645.767261 838.056769,638.678687 830.716639,639.436771 829.197214,639.569480 829.002392,643.765445"/>
    <poly id="109543437" type="building.yes" color="255,230,230" fill="1" layer="-1.00" shape="815.734988,650.310340 815.531418,650.259119 815.863877,647.583469 816.240114,644.851284 823.292835,644.677532 823.252587,644.200289 829.002392,643.765445 829.010986,644.165537 830.761002,644.294726 830.745633,645.673785 837.781595,645.767261 837.783079,648.280073 837.780837,650.270383 829.878754,650.351176 815.734988,650.310340"/>
    <poly id="109544148" type="building.yes" color="255,230,230" fill="1" layer="-1.00" shape="843.306394,648.472761 843.371563,653.252436 844.848160,653.220721 846.511904,653.173867 846.788806,648.609219 843.294602,648.272876 843.306394,648.472761"/>
    <poly id="109545541" type="building.yes" color="255,230,230" fill="1" layer="-1.00" shape="855.512430,646.976414 856.187018,646.961926 857.108397,640.281989 858.908277,631.559567 855.484483,631.010447 852.045698,630.461651 849.550896,644.536015 849.448919,646.072597 855.512430,646.976414"/>
    <poly id="109545544" type="building.yes" color="255,230,230" fill="1" layer="-1.00" shape="859.398783,647.415531 861.902158,647.706450 861.677148,649.101130 859.207097,648.965158 859.398783,647.415531"/>
    <poly id="109546816" type="building.yes" color="255,230,230" fill="1" layer="-1.00" shape="868.251543,648.303934 874.966717,649.872022 871.961923,658.008780 871.617135,658.016184 869.277373,658.010836 867.005071,658.004039 867.860387,650.691753 868.251543,648.303934"/>
    <poly id="109546818" type="building.yes" color="255,230,230" fill="1" layer="-1.00" shape="861.902158,647.706450 868.251543,648.303934 868.477173,647.287280 868.100970,647.228646 868.917128,643.330666 871.049546,634.378732 867.664762,633.550797 864.257251,632.712234 862.374527,642.815162 861.902158,647.706450"/>
    <poly id="109547966" type="building.yes" color="255,230,230" fill="1" layer="-1.00" shape="881.101160,651.285807 879.226646,657.930612 891.787031,659.317614 892.469422,656.523268 893.172868,653.661758 883.971807,651.568849 883.888783,651.893076 881.101160,651.285807"/>
    <poly id="109552559" type="building.yes" color="255,230,230" fill="1" layer="-1.00" shape="807.233940,692.666527 808.574562,692.937930 819.035766,695.048121 819.371295,665.987533 815.471298,665.960132 815.513083,667.905021 814.936176,667.928534 815.029005,671.551263 814.129796,671.581701 814.153713,679.675661 807.403092,679.598322 807.381282,680.677313 807.233940,692.666527"/>
    <poly id="109552561" type="building.yes" color="255,230,230" fill="1" layer="-1.00" shape="791.735068,670.039261 790.521292,670.087580 789.547644,669.096693 789.574541,666.160756 791.733217,666.114369 791.735068,670.039261"/>
    <poly id="109552566" type="building.yes" color="255,230,230" fill="1" layer="-1.00" shape="786.383373,676.436375 803.891313,676.349259 803.898119,673.524942 803.896713,670.667445 806.925331,670.624610 806.970826,663.318592 806.991780,655.568350 796.650774,654.867681 796.560996,663.253173 796.512656,665.889363 791.742237,665.836206 791.733217,666.114369 791.735068,670.039261 791.752594,670.505873 786.375051,670.465766 786.383373,676.436375"/>
    <poly id="109563159" type="building.yes" color="255,230,230" fill="1" layer="-1.00" shape="665.262131,420.194958 667.722211,421.954410 663.559933,426.825012 661.215004,424.840710 665.262131,420.194958"/>
    <poly id="109563329" type="building.yes" color="255,230,230" fill="1" layer="-1.00" shape="657.073439,421.260592 661.048152,417.083384 665.262131,420.194958 661.215004,424.840710 657.073439,421.260592"/>
    <poly id="109564177" type="building.yes" color="255,230,230" fill="1" layer="-1.00" shape="628.965165,418.062634 630.186562,418.714602 628.597735,423.641053 627.016406,428.567344 617.676059,425.599452 617.803569,425.252026 613.566667,423.864391 613.657894,423.573340 614.598233,420.573270 617.270131,421.371926 619.727425,415.681826 620.196410,413.081057 628.965165,418.062634"/>
    <poly id="109564179" type="building.yes" color="255,230,230" fill="1" layer="-1.00" shape="640.810066,407.078175 645.037228,403.829504 655.622899,413.441927 652.150247,417.252538 640.810066,407.078175"/>
    <poly id="109564181" type="building.yes" color="255,230,230" fill="1" layer="-1.00" shape="616.536757,429.459950 615.320586,433.233151 615.230555,433.579771 624.367946,436.874470 624.994653,434.981910 625.620404,433.044896 616.536757,429.459950"/>
    <poly id="109565387" type="building.yes" color="255,230,230" fill="1" layer="-1.00" shape="591.420673,436.716172 588.966311,436.268648 589.349877,433.880971 592.028633,434.301429 591.420673,436.716172"/>
    <poly id="109565388" type="building.yes" color="255,230,230" fill="1" layer="-1.00" shape="577.984314,433.680833 581.484011,433.916835 583.623636,434.026448 583.338476,435.411316 580.191373,446.330995 576.735222,446.027344 573.278832,445.712582 576.533815,433.534152 577.984314,433.680833"/>
    <poly id="109565389" type="building.yes" color="255,230,230" fill="1" layer="-1.00" shape="600.595955,439.331772 601.089651,436.485856 602.479384,436.945177 601.959612,439.624872 600.595955,439.331772"/>
    <poly id="109565391" type="building.yes" color="255,230,230" fill="1" layer="-1.00" shape="584.835384,435.623713 585.203956,433.236358 584.015090,433.050688 583.623636,434.026448 583.338476,435.411316 584.835384,435.623713"/>
    <poly id="109565724" type="building.yes" color="255,230,230" fill="1" layer="-1.00" shape="576.533815,433.534152 577.627881,427.573167 579.937676,427.923730 579.489044,430.423996 579.008601,430.400980 578.810440,431.995233 578.136383,432.732463 577.984314,433.680833 576.533815,433.534152"/>
    <poly id="109565725" type="building.yes" color="255,230,230" fill="1" layer="-1.00" shape="569.364811,431.453582 571.370710,431.621663 572.187827,427.078724 570.330883,426.862962 569.364811,431.453582"/>
    <poly id="109565726" type="building.yes" color="255,230,230" fill="1" layer="-1.00" shape="574.323619,433.281517 576.533815,433.534152 573.278832,445.712582 569.853620,445.452744 566.488613,445.202731 569.098553,432.671262 574.323619,433.281517"/>
    <poly id="109565772" type="building.yes" color="255,230,230" fill="1" layer="-1.00" shape="561.896293,432.181404 565.301897,432.575085 566.369636,426.436763 562.939628,425.954657 561.896293,432.181404"/>
    <poly id="109565773" type="building.yes" color="255,230,230" fill="1" layer="-1.00" shape="561.178289,420.077371 562.195475,420.300089 562.419150,419.194513 561.439442,418.970989 561.178289,420.077371"/>
    <poly id="109566011" type="building.yes" color="255,230,230" fill="1" layer="-1.00" shape="554.788001,407.839712 553.696660,411.487933 558.579177,412.906103 559.539425,409.438605 554.788001,407.839712"/>
    <poly id="109566012" type="building.yes" color="255,230,230" fill="1" layer="-1.00" shape="566.157125,420.048029 565.860406,421.244128 564.330879,420.910131 564.657581,419.713388 566.157125,420.048029"/>
    <poly id="109566013" type="building.yes" color="255,230,230" fill="1" layer="-1.00" shape="565.466880,422.820349 568.781265,423.505084 569.412741,420.789624 566.157125,420.048029 565.860406,421.244128 565.466880,422.820349"/>
    <poly id="109566014" type="building.yes" color="255,230,230" fill="1" layer="-1.00" shape="547.691357,429.674143 554.984449,430.551186 556.601115,422.043860 556.660121,419.907781 551.630248,418.959775 549.296045,418.520799 547.691357,429.674143"/>
    <poly id="109566132" type="building.yes" color="255,230,230" fill="1" layer="-1.00" shape="582.548191,423.431145 582.917155,423.501035 585.583317,424.032949 586.774680,417.714071 583.945045,417.252387 582.548191,423.431145"/>
    <poly id="109566133" type="building.yes" color="255,230,230" fill="1" layer="-1.00" shape="582.549692,428.378976 584.708855,428.699426 585.031336,426.957954 582.827437,426.649585 582.549692,428.378976"/>
    <poly id="109566134" type="building.yes" color="255,230,230" fill="1" layer="-1.00" shape="551.630248,418.959775 552.692160,414.989742 557.649631,416.406296 556.660121,419.907781 551.630248,418.959775"/>
    <poly id="109566135" type="building.yes" color="255,230,230" fill="1" layer="-1.00" shape="581.955378,428.291698 582.917155,423.501035 585.583317,424.032949 585.031336,426.957954 582.827437,426.649585 582.549692,428.378976 581.955378,428.291698"/>
    <poly id="109566136" type="building.yes" color="255,230,230" fill="1" layer="-1.00" shape="579.610508,422.827244 582.548191,423.431145 583.945045,417.252387 581.099700,416.757686 579.610508,422.827244"/>
    <poly id="109566235" type="building.yes" color="255,230,230" fill="1" layer="-1.00" shape="618.845910,412.354037 620.196410,413.081057 619.727425,415.681826 617.270131,421.371926 614.598233,420.573270 608.106474,418.600386 601.599479,416.616718 602.355850,413.431585 602.121569,413.347677 603.648191,406.576836 613.492465,409.611695 618.845910,412.354037"/>
    <poly id="109566322" type="building.yes" color="255,230,230" fill="1" layer="-1.00" shape="591.773440,402.929682 582.597379,400.280754 579.900880,409.489558 584.639776,410.855246 589.438875,412.230761 591.773440,402.929682"/>
    <poly id="109566323" type="building.yes" color="255,230,230" fill="1" layer="-1.00" shape="580.577311,387.259647 578.330339,385.995990 579.904626,380.046908 582.138044,381.377570 580.577311,387.259647"/>
    <poly id="109566324" type="building.yes" color="255,230,230" fill="1" layer="-1.00" shape="582.945889,388.598519 580.577311,387.259647 582.138044,381.377570 584.469623,382.739476 582.945889,388.598519"/>
    <poly id="109566407" type="building.yes" color="255,230,230" fill="1" layer="-1.00" shape="576.688513,392.291209 576.979654,391.184182 578.082646,391.560719 577.604350,392.682893 576.688513,392.291209"/>
    <poly id="109566408" type="building.yes" color="255,230,230" fill="1" layer="-1.00" shape="579.548528,398.344990 580.625058,394.007728 577.604350,392.682893 576.688513,392.291209 575.416218,397.288695 579.548528,398.344990"/>
    <poly id="109566409" type="building.yes" color="255,230,230" fill="1" layer="-1.00" shape="578.468652,402.526662 577.288301,407.266436 573.655660,405.732398 573.893770,404.948958 574.053734,404.367337 574.170320,402.118831 574.313617,401.459738 578.468652,402.526662"/>
    <poly id="109567807" type="building.yes" color="255,230,230" fill="1" layer="-1.00" shape="582.899075,515.342682 596.797892,520.013655 598.340401,517.467611 599.911698,514.865355 586.434862,508.895512 582.899075,515.342682"/>
    <poly id="109567808" type="building.yes" color="255,230,230" fill="1" layer="-1.00" shape="589.503534,503.392375 602.686930,510.013431 601.566726,511.972208 599.911698,514.865355 586.434862,508.895512 589.503534,503.392375"/>
    <poly id="109567809" type="building.yes" color="255,230,230" fill="1" layer="-1.00" shape="612.229086,475.317594 614.700507,464.012195 623.449043,466.314567 624.638993,468.990831 622.728831,473.968674 620.811893,478.980020 612.229086,475.317594"/>
    <poly id="109568020" type="building.yes" color="255,230,230" fill="1" layer="-1.00" shape="586.679055,470.763903 590.128570,471.456860 594.746028,459.515970 589.270842,458.432972 586.679055,470.763903"/>